@<TRIPOS>MOLECULE
[[5-(6-aminopurin-9-yl)-3,4-dihydroxy-tetrahydrofuran-2-yl]methoxy-oxido-phosphoryl] [5-(3-carbamoyl-4~{H}-pyridin-1-yl)-3,4-dihydroxy-tetrahydrofuran-2-yl]methyl phosphate
   71    75     1     0     0
SMALL
USER_CHARGES

@<TRIPOS>ATOM
      1 PA         -4.3863   -0.3717    1.5567 P.3       1 NAD         1.5975
      2 PN         -3.0545   -2.6961    2.8165 P.3       1 NAD         1.5999
      3 C1B        -3.3870   -1.4655   -3.7493 C.3       1 NAD         0.4343
      4 C1D        -1.0466   -7.7488    0.9637 C.3       1 NAD         0.4065
      5 N1A         0.3327   -4.3756   -5.8351 N.ar      1 NAD        -0.8042
      6 N1N        -1.8781   -8.6454    1.7210 N.pl3     1 NAD        -0.5522
      7 O1A        -5.8025   -0.7209    1.9602 O.2       1 NAD        -0.8736
      8 O1N        -2.1406   -1.9172    3.7376 O.2       1 NAD        -0.8685
      9 C2A        -0.6730   -3.6612   -6.3956 C.ar      1 NAD         0.6507
     10 C2B        -4.7088   -2.2179   -3.7743 C.3       1 NAD         0.0572
     11 C2D        -1.4237   -7.7116   -0.5116 C.3       1 NAD         0.0646
     12 C2N        -1.5372   -9.9955    1.8889 C.2       1 NAD         0.1728
     13 O2A        -3.6193    0.7112    2.2838 O.3       1 NAD        -0.8736
     14 O2B        -4.9728   -2.7772   -5.0448 O.3       1 NAD        -0.5910
     15 O2D        -0.2618   -7.4415   -1.2930 O.3       1 NAD        -0.6068
     16 O2N        -4.3000   -3.3691    3.3506 O.3       1 NAD        -0.8685
     17 C3B        -5.6859   -1.1235   -3.3927 C.3       1 NAD         0.0841
     18 C3D        -2.4024   -6.5552   -0.5596 C.3       1 NAD         0.0717
     19 C3N        -2.2994  -10.8812    2.5518 C.2       1 NAD        -0.3304
     20 N3A        -1.6207   -2.9132   -5.7896 N.ar      1 NAD        -0.7096
     21 O3         -3.4857   -1.7346    1.5681 O.3       1 NAD        -0.8150
     22 O3B        -5.9299   -0.2876   -4.5240 O.3       1 NAD        -0.6037
     23 O3D        -2.5192   -5.9716   -1.8394 O.3       1 NAD        -0.5846
     24 C4A        -1.4622   -2.9445   -4.4579 C.ar      1 NAD         0.5672
     25 C4B        -4.8969   -0.3300   -2.3559 C.3       1 NAD         0.1083
     26 C4D        -1.8093   -5.5929    0.4555 C.3       1 NAD         0.1085
     27 C4N        -3.6135  -10.4816    3.1747 C.3       1 NAD         0.0431
     28 O4B        -3.4998   -0.4919   -2.6935 O.3       1 NAD        -0.4042
     29 O4D        -1.2285   -6.4173    1.4804 O.3       1 NAD        -0.3867
     30 C5A        -0.4883   -3.6256   -3.7452 C.ar      1 NAD        -0.2035
     31 C5B        -5.1090   -0.8343   -0.9354 C.3       1 NAD         0.1867
     32 C5D        -2.8370   -4.6601    1.0721 C.3       1 NAD         0.2034
     33 C5N        -3.9438   -9.0250    2.9419 C.2       1 NAD        -0.2554
     34 O5B        -4.3412   -0.0420   -0.0445 O.3       1 NAD        -0.5724
     35 O5D        -2.1813   -3.8114    1.9978 O.3       1 NAD        -0.5698
     36 C6A         0.4325   -4.3617   -4.4841 C.ar      1 NAD         0.7160
     37 C6N        -3.1023   -8.2294    2.2604 C.2       1 NAD         0.0601
     38 N6A         1.4542   -5.0834   -3.8434 N.pl3     1 NAD        -0.9412
     39 C7N        -1.8403  -12.2646    2.6626 C.2       1 NAD         0.6915
     40 N7A        -0.6423   -3.4231   -2.3967 N.ar      1 NAD        -0.5755
     41 N7N        -2.7035  -13.0768    3.3625 N.am      1 NAD        -0.6871
     42 O7N        -0.7778  -12.6383    2.1661 O.2       1 NAD        -0.6737
     43 C8A        -1.6905   -2.6331   -2.2917 C.ar      1 NAD         0.5838
     44 N9A        -2.2223   -2.3157   -3.5133 N.pl3     1 NAD        -0.6884
     45 HO2B       -5.8962   -3.3512   -5.2120 H         1 NAD         0.4061
     46 HO2D       -0.3386   -7.3765   -2.3884 H         1 NAD         0.4269
     47 HO3B       -6.6176    0.5667   -4.4385 H         1 NAD         0.4063
     48 HO3D       -3.2009   -5.1228   -1.9967 H         1 NAD         0.4038
     49 H1B        -3.1808   -0.9850   -4.7171 H         1 NAD         0.0905
     50 H1D        -0.0146   -8.0992    1.1131 H         1 NAD         0.0868
     51 H2A        -0.7227   -3.6947   -7.4789 H         1 NAD         0.0336
     52 H2B        -4.7660   -3.1301   -3.1622 H         1 NAD         0.0811
     53 H2D        -1.8015   -8.6484   -0.9471 H         1 NAD         0.0698
     54 H3B        -6.6812   -1.4733   -3.0814 H         1 NAD         0.0820
     55 H2N        -0.5853  -10.3161    1.4404 H         1 NAD         0.1651
     56 H3D        -3.4542   -6.8368   -0.4030 H         1 NAD         0.0688
     57 H4B        -5.1848    0.7311   -2.3894 H         1 NAD         0.1069
     58 H4D        -1.0386   -4.9601   -0.0087 H         1 NAD         0.0879
     59 H4N        -4.4236  -11.0865    2.7414 H         1 NAD         0.0174
     60 H4N        -3.5708  -10.6502    4.2609 H         1 NAD         0.0174
     61 H5N        -4.8860   -8.6182    3.3379 H         1 NAD         0.1469
     62 H6N        -3.3579   -7.1725    2.0943 H         1 NAD         0.2059
     63 H8A        -2.1081   -2.2615   -1.3659 H         1 NAD         0.1378
     64 H5B1       -6.1749   -0.7583   -0.6747 H         1 NAD         0.0352
     65 H5B2       -4.7890   -1.8845   -0.8675 H         1 NAD         0.0352
     66 H5D1       -3.3071   -4.0579    0.2807 H         1 NAD         0.0378
     67 H5D2       -3.6069   -5.2525    1.5882 H         1 NAD         0.0378
     68 H6A1        1.5323   -5.0699   -2.7463 H         1 NAD         0.4212
     69 H6A2        2.1758   -5.6618   -4.4391 H         1 NAD         0.4212
     70 H7N1       -2.4612  -14.1397    3.5095 H         1 NAD         0.3011
     71 H7N2       -3.6356  -12.6630    3.7748 H         1 NAD         0.3011
@<TRIPOS>BOND
     1    1    7 2
     2    1   13 1
     3    1   21 1
     4    1   34 1
     5    2    8 2
     6    2   16 1
     7    2   21 1
     8    2   35 1
     9    3   10 1
    10    3   28 1
    11    3   44 1
    12    3   49 1
    13    4    6 1
    14    4   11 1
    15    4   29 1
    16    4   50 1
    17    5    9 ar
    18    5   36 ar
    19    6   12 1
    20    6   37 1
    21    9   20 ar
    22    9   51 1
    23   10   14 1
    24   10   17 1
    25   10   52 1
    26   11   15 1
    27   11   18 1
    28   11   53 1
    29   12   19 2
    30   12   55 1
    31   14   45 1
    32   15   46 1
    33   17   22 1
    34   17   25 1
    35   17   54 1
    36   18   23 1
    37   18   26 1
    38   18   56 1
    39   19   27 1
    40   19   39 1
    41   20   24 ar
    42   22   47 1
    43   23   48 1
    44   24   30 ar
    45   24   44 ar
    46   25   28 1
    47   25   31 1
    48   25   57 1
    49   26   29 1
    50   26   32 1
    51   26   58 1
    52   27   33 1
    53   27   59 1
    54   27   60 1
    55   30   36 ar
    56   30   40 ar
    57   31   34 1
    58   31   64 1
    59   31   65 1
    60   32   35 1
    61   32   66 1
    62   32   67 1
    63   33   37 2
    64   33   61 1
    65   36   38 1
    66   37   62 1
    67   38   68 1
    68   38   69 1
    69   39   41 am
    70   39   42 2
    71   40   43 ar
    72   41   70 1
    73   41   71 1
    74   43   44 ar
    75   43   63 1
@<TRIPOS>SUBSTRUCTURE
     1 NAD         1 GROUP   0 A     ****
@<TRIPOS>MOLECULE
1-[5-[[[[5-(6-aminopurin-9-yl)-3,4-dihydroxy-tetrahydrofuran-2-yl]methoxy-oxido-phosphoryl]oxy-oxido-phosphoryl]oxymethyl]-3,4-dihydroxy-tetrahydrofuran-2-yl]-4~{H}-pyridine-3-carboximidate
   70    74     1     0     0
SMALL
USER_CHARGES

@<TRIPOS>ATOM
      1 PA         -4.3863   -0.3717    1.5567 P.3       1 NAD         1.5908
      2 PN         -3.0545   -2.6961    2.8165 P.3       1 NAD         1.5944
      3 C1B        -3.3870   -1.4655   -3.7493 C.3       1 NAD         0.4311
      4 C1D        -1.0466   -7.7488    0.9637 C.3       1 NAD         0.4122
      5 N1A         0.3327   -4.3756   -5.8351 N.ar      1 NAD        -0.8076
      6 N1N        -1.8781   -8.6454    1.7210 N.pl3     1 NAD        -0.5893
      7 O1A        -5.8025   -0.7209    1.9602 O.2       1 NAD        -0.8735
      8 O1N        -2.1406   -1.9172    3.7376 O.2       1 NAD        -0.8717
      9 C2A        -0.6730   -3.6612   -6.3956 C.ar      1 NAD         0.6481
     10 C2B        -4.7088   -2.2179   -3.7743 C.3       1 NAD         0.0536
     11 C2D        -1.4237   -7.7116   -0.5116 C.3       1 NAD         0.0945
     12 C2N        -1.5372   -9.9955    1.8889 C.2       1 NAD        -0.0057
     13 O2A        -3.6193    0.7112    2.2838 O.3       1 NAD        -0.8735
     14 O2B        -4.9728   -2.7772   -5.0448 O.3       1 NAD        -0.5933
     15 O2D        -0.2618   -7.4415   -1.2930 O.3       1 NAD        -0.5852
     16 O2N        -4.3000   -3.3691    3.3506 O.3       1 NAD        -0.8717
     17 C3B        -5.6859   -1.1235   -3.3927 C.3       1 NAD         0.0772
     18 C3D        -2.4024   -6.5552   -0.5596 C.3       1 NAD         0.1220
     19 C3N        -2.2994  -10.8812    2.5518 C.2       1 NAD        -0.2688
     20 N3A        -1.6207   -2.9132   -5.7896 N.ar      1 NAD        -0.7062
     21 O3         -3.4857   -1.7346    1.5681 O.3       1 NAD        -0.8152
     22 O3B        -5.9299   -0.2876   -4.5240 O.3       1 NAD        -0.5926
     23 O3D        -2.5192   -5.9716   -1.8394 O.3       1 NAD        -0.5988
     24 C4A        -1.4622   -2.9445   -4.4579 C.ar      1 NAD         0.5658
     25 C4B        -4.8969   -0.3300   -2.3559 C.3       1 NAD         0.0936
     26 C4D        -1.8093   -5.5929    0.4555 C.3       1 NAD         0.0910
     27 C4N        -3.6135  -10.4816    3.1747 C.3       1 NAD         0.0325
     28 O4B        -3.4998   -0.4919   -2.6935 O.3       1 NAD        -0.3992
     29 O4D        -1.2285   -6.4173    1.4804 O.3       1 NAD        -0.4246
     30 C5A        -0.4883   -3.6256   -3.7452 C.ar      1 NAD        -0.2030
     31 C5B        -5.1090   -0.8343   -0.9354 C.3       1 NAD         0.1994
     32 C5D        -2.8370   -4.6601    1.0721 C.3       1 NAD         0.1706
     33 C5N        -3.9438   -9.0250    2.9419 C.2       1 NAD        -0.2954
     34 O5B        -4.3412   -0.0420   -0.0445 O.3       1 NAD        -0.5664
     35 O5D        -2.1813   -3.8114    1.9978 O.3       1 NAD        -0.5938
     36 C6A         0.4325   -4.3617   -4.4841 C.ar      1 NAD         0.7125
     37 C6N        -3.1023   -8.2294    2.2604 C.2       1 NAD         0.0816
     38 N6A         1.4542   -5.0834   -3.8434 N.pl3     1 NAD        -0.9392
     39 C7N        -1.8403  -12.2646    2.6626 C.2       1 NAD         0.9323
     40 N7A        -0.6423   -3.4231   -2.3967 N.ar      1 NAD        -0.5789
     41 N7N        -2.7035  -13.0768    3.3625 N.2       1 NAD        -1.0712
     42 O7N        -0.7778  -12.6383    2.1661 O.3       1 NAD        -0.8711
     43 C8A        -1.6905   -2.6331   -2.2917 C.ar      1 NAD         0.5861
     44 N9A        -2.2223   -2.3157   -3.5133 N.pl3     1 NAD        -0.6817
     45 HO2B       -5.8962   -3.3512   -5.2120 H         1 NAD         0.4083
     46 HO2D       -0.3386   -7.3765   -2.3884 H         1 NAD         0.4014
     47 HO3B       -6.6176    0.5667   -4.4385 H         1 NAD         0.4003
     48 HO3D       -3.2009   -5.1228   -1.9967 H         1 NAD         0.3954
     49 H1B        -3.1808   -0.9850   -4.7171 H         1 NAD         0.0902
     50 H1D        -0.0146   -8.0992    1.1131 H         1 NAD         0.0602
     51 H2A        -0.7227   -3.6947   -7.4789 H         1 NAD         0.0315
     52 H2B        -4.7660   -3.1301   -3.1622 H         1 NAD         0.0774
     53 H2D        -1.8015   -8.6484   -0.9471 H         1 NAD         0.0713
     54 H3B        -6.6812   -1.4733   -3.0814 H         1 NAD         0.1106
     55 H2N        -0.5853  -10.3161    1.4404 H         1 NAD         0.1238
     56 H3D        -3.4542   -6.8368   -0.4030 H         1 NAD         0.0826
     57 H4B        -5.1848    0.7311   -2.3894 H         1 NAD         0.1148
     58 H4D        -1.0386   -4.9601   -0.0087 H         1 NAD         0.0650
     59 H4N        -4.4236  -11.0865    2.7414 H         1 NAD         0.0311
     60 H4N        -3.5708  -10.6502    4.2609 H         1 NAD         0.0311
     61 H5N        -4.8860   -8.6182    3.3379 H         1 NAD         0.1149
     62 H6N        -3.3579   -7.1725    2.0943 H         1 NAD         0.1583
     63 H8A        -2.1081   -2.2615   -1.3659 H         1 NAD         0.1331
     64 H5B1       -6.1749   -0.7583   -0.6747 H         1 NAD         0.0254
     65 H5B2       -4.7890   -1.8845   -0.8675 H         1 NAD         0.0254
     66 H5D1       -3.3071   -4.0579    0.2807 H         1 NAD         0.0480
     67 H5D2       -3.6069   -5.2525    1.5882 H         1 NAD         0.0480
     68 H6A1        1.5323   -5.0699   -2.7463 H         1 NAD         0.4177
     69 H6A2        2.1758   -5.6618   -4.4391 H         1 NAD         0.4177
     70 H7N2       -3.6356  -12.6630    3.7748 H         1 NAD         0.3047
@<TRIPOS>BOND
     1    1    7 2
     2    1   13 1
     3    1   21 1
     4    1   34 1
     5    2    8 2
     6    2   16 1
     7    2   21 1
     8    2   35 1
     9    3   10 1
    10    3   28 1
    11    3   44 1
    12    3   49 1
    13    4    6 1
    14    4   11 1
    15    4   29 1
    16    4   50 1
    17    5    9 ar
    18    5   36 ar
    19    6   12 1
    20    6   37 1
    21    9   20 ar
    22    9   51 1
    23   10   14 1
    24   10   17 1
    25   10   52 1
    26   11   15 1
    27   11   18 1
    28   11   53 1
    29   12   19 2
    30   12   55 1
    31   14   45 1
    32   15   46 1
    33   17   22 1
    34   17   25 1
    35   17   54 1
    36   18   23 1
    37   18   26 1
    38   18   56 1
    39   19   27 1
    40   19   39 1
    41   20   24 ar
    42   22   47 1
    43   23   48 1
    44   24   30 ar
    45   24   44 ar
    46   25   28 1
    47   25   31 1
    48   25   57 1
    49   26   29 1
    50   26   32 1
    51   26   58 1
    52   27   33 1
    53   27   59 1
    54   27   60 1
    55   30   36 ar
    56   30   40 ar
    57   31   34 1
    58   31   64 1
    59   31   65 1
    60   32   35 1
    61   32   66 1
    62   32   67 1
    63   33   37 2
    64   33   61 1
    65   36   38 1
    66   37   62 1
    67   38   68 1
    68   38   69 1
    69   39   41 2
    70   39   42 1
    71   40   43 ar
    72   41   70 1
    73   43   44 ar
    74   43   63 1
@<TRIPOS>SUBSTRUCTURE
     1 NAD         1 GROUP   0 A     ****
@<TRIPOS>MOLECULE
1-[5-[[[[5-(6-aminopurin-9-yl)-3,4-dihydroxy-tetrahydrofuran-2-yl]methoxy-oxido-phosphoryl]oxy-oxido-phosphoryl]oxymethyl]-3,4-dihydroxy-tetrahydrofuran-2-yl]-4~{H}-pyridine-3-carboximidate
   70    74     1     0     0
SMALL
USER_CHARGES

@<TRIPOS>ATOM
      1 PA         -4.3863   -0.3717    1.5567 P.3       1 NAD         1.5899
      2 PN         -3.0545   -2.6961    2.8165 P.3       1 NAD         1.5930
      3 C1B        -3.3870   -1.4655   -3.7493 C.3       1 NAD         0.4292
      4 C1D        -1.0466   -7.7488    0.9637 C.3       1 NAD         0.4126
      5 N1A         0.3327   -4.3756   -5.8351 N.ar      1 NAD        -0.8072
      6 N1N        -1.8781   -8.6454    1.7210 N.pl3     1 NAD        -0.5904
      7 O1A        -5.8025   -0.7209    1.9602 O.2       1 NAD        -0.8730
      8 O1N        -2.1406   -1.9172    3.7376 O.2       1 NAD        -0.8711
      9 C2A        -0.6730   -3.6612   -6.3956 C.ar      1 NAD         0.6482
     10 C2B        -4.7088   -2.2179   -3.7743 C.3       1 NAD         0.0544
     11 C2D        -1.4237   -7.7116   -0.5116 C.3       1 NAD         0.0960
     12 C2N        -1.5372   -9.9955    1.8889 C.2       1 NAD         0.0152
     13 O2A        -3.6193    0.7112    2.2838 O.3       1 NAD        -0.8730
     14 O2B        -4.9728   -2.7772   -5.0448 O.3       1 NAD        -0.5933
     15 O2D        -0.2618   -7.4415   -1.2930 O.3       1 NAD        -0.5870
     16 O2N        -4.3000   -3.3691    3.3506 O.3       1 NAD        -0.8711
     17 C3B        -5.6859   -1.1235   -3.3927 C.3       1 NAD         0.0772
     18 C3D        -2.4024   -6.5552   -0.5596 C.3       1 NAD         0.1182
     19 C3N        -2.2994  -10.8812    2.5518 C.2       1 NAD        -0.2067
     20 N3A        -1.6207   -2.9132   -5.7896 N.ar      1 NAD        -0.7062
     21 O3         -3.4857   -1.7346    1.5681 O.3       1 NAD        -0.8156
     22 O3B        -5.9299   -0.2876   -4.5240 O.3       1 NAD        -0.5940
     23 O3D        -2.5192   -5.9716   -1.8394 O.3       1 NAD        -0.5962
     24 C4A        -1.4622   -2.9445   -4.4579 C.ar      1 NAD         0.5685
     25 C4B        -4.8969   -0.3300   -2.3559 C.3       1 NAD         0.0933
     26 C4D        -1.8093   -5.5929    0.4555 C.3       1 NAD         0.0915
     27 C4N        -3.6135  -10.4816    3.1747 C.3       1 NAD         0.0293
     28 O4B        -3.4998   -0.4919   -2.6935 O.3       1 NAD        -0.3981
     29 O4D        -1.2285   -6.4173    1.4804 O.3       1 NAD        -0.4277
     30 C5A        -0.4883   -3.6256   -3.7452 C.ar      1 NAD        -0.2042
     31 C5B        -5.1090   -0.8343   -0.9354 C.3       1 NAD         0.1958
     32 C5D        -2.8370   -4.6601    1.0721 C.3       1 NAD         0.1706
     33 C5N        -3.9438   -9.0250    2.9419 C.2       1 NAD        -0.2935
     34 O5B        -4.3412   -0.0420   -0.0445 O.3       1 NAD        -0.5645
     35 O5D        -2.1813   -3.8114    1.9978 O.3       1 NAD        -0.5927
     36 C6A         0.4325   -4.3617   -4.4841 C.ar      1 NAD         0.7120
     37 C6N        -3.1023   -8.2294    2.2604 C.2       1 NAD         0.0778
     38 N6A         1.4542   -5.0834   -3.8434 N.pl3     1 NAD        -0.9382
     39 C7N        -1.8403  -12.2646    2.6626 C.2       1 NAD         0.9077
     40 N7A        -0.6423   -3.4231   -2.3967 N.ar      1 NAD        -0.5783
     41 N7N        -2.7035  -13.0768    3.3625 N.2       1 NAD        -1.0857
     42 O7N        -0.7778  -12.6383    2.1661 O.3       1 NAD        -0.9319
     43 C8A        -1.6905   -2.6331   -2.2917 C.ar      1 NAD         0.5862
     44 N9A        -2.2223   -2.3157   -3.5133 N.pl3     1 NAD        -0.6810
     45 HO2B       -5.8962   -3.3512   -5.2120 H         1 NAD         0.4081
     46 HO2D       -0.3386   -7.3765   -2.3884 H         1 NAD         0.4060
     47 HO3B       -6.6176    0.5667   -4.4385 H         1 NAD         0.3997
     48 HO3D       -3.2009   -5.1228   -1.9967 H         1 NAD         0.3941
     49 H1B        -3.1808   -0.9850   -4.7171 H         1 NAD         0.0897
     50 H1D        -0.0146   -8.0992    1.1131 H         1 NAD         0.0605
     51 H2A        -0.7227   -3.6947   -7.4789 H         1 NAD         0.0313
     52 H2B        -4.7660   -3.1301   -3.1622 H         1 NAD         0.0778
     53 H2D        -1.8015   -8.6484   -0.9471 H         1 NAD         0.0723
     54 H3B        -6.6812   -1.4733   -3.0814 H         1 NAD         0.1119
     55 H2N        -0.5853  -10.3161    1.4404 H         1 NAD         0.1385
     56 H3D        -3.4542   -6.8368   -0.4030 H         1 NAD         0.0822
     57 H4B        -5.1848    0.7311   -2.3894 H         1 NAD         0.1118
     58 H4D        -1.0386   -4.9601   -0.0087 H         1 NAD         0.0624
     59 H4N        -4.4236  -11.0865    2.7414 H         1 NAD         0.0344
     60 H4N        -3.5708  -10.6502    4.2609 H         1 NAD         0.0344
     61 H5N        -4.8860   -8.6182    3.3379 H         1 NAD         0.1138
     62 H6N        -3.3579   -7.1725    2.0943 H         1 NAD         0.1577
     63 H8A        -2.1081   -2.2615   -1.3659 H         1 NAD         0.1328
     64 H5B1       -6.1749   -0.7583   -0.6747 H         1 NAD         0.0280
     65 H5B2       -4.7890   -1.8845   -0.8675 H         1 NAD         0.0280
     66 H5D1       -3.3071   -4.0579    0.2807 H         1 NAD         0.0474
     67 H5D2       -3.6069   -5.2525    1.5882 H         1 NAD         0.0474
     68 H6A1        1.5323   -5.0699   -2.7463 H         1 NAD         0.4172
     69 H6A2        2.1758   -5.6618   -4.4391 H         1 NAD         0.4172
     70 H7N1       -2.4612  -14.1397    3.5095 H         1 NAD         0.3096
@<TRIPOS>BOND
     1    1    7 2
     2    1   13 1
     3    1   21 1
     4    1   34 1
     5    2    8 2
     6    2   16 1
     7    2   21 1
     8    2   35 1
     9    3   10 1
    10    3   28 1
    11    3   44 1
    12    3   49 1
    13    4    6 1
    14    4   11 1
    15    4   29 1
    16    4   50 1
    17    5    9 ar
    18    5   36 ar
    19    6   12 1
    20    6   37 1
    21    9   20 ar
    22    9   51 1
    23   10   14 1
    24   10   17 1
    25   10   52 1
    26   11   15 1
    27   11   18 1
    28   11   53 1
    29   12   19 2
    30   12   55 1
    31   14   45 1
    32   15   46 1
    33   17   22 1
    34   17   25 1
    35   17   54 1
    36   18   23 1
    37   18   26 1
    38   18   56 1
    39   19   27 1
    40   19   39 1
    41   20   24 ar
    42   22   47 1
    43   23   48 1
    44   24   30 ar
    45   24   44 ar
    46   25   28 1
    47   25   31 1
    48   25   57 1
    49   26   29 1
    50   26   32 1
    51   26   58 1
    52   27   33 1
    53   27   59 1
    54   27   60 1
    55   30   36 ar
    56   30   40 ar
    57   31   34 1
    58   31   64 1
    59   31   65 1
    60   32   35 1
    61   32   66 1
    62   32   67 1
    63   33   37 2
    64   33   61 1
    65   36   38 1
    66   37   62 1
    67   38   68 1
    68   38   69 1
    69   39   41 2
    70   39   42 1
    71   40   43 ar
    72   41   70 1
    73   43   44 ar
    74   43   63 1
@<TRIPOS>SUBSTRUCTURE
     1 NAD         1 GROUP   0 A     ****
@<TRIPOS>MOLECULE
[[5-(6-amino-1,2-dihydropurin-2-ylium-9-yl)-3,4-dihydroxy-tetrahydrofuran-2-yl]methoxy-oxido-phosphoryl] [5-(3-carbamoyl-4~{H}-pyridin-1-yl)-3,4-dihydroxy-tetrahydrofuran-2-yl]methyl phosphate
   72    76     1     0     0
SMALL
USER_CHARGES

@<TRIPOS>ATOM
      1 PA         -4.3863   -0.3717    1.5567 P.3       1 NAD         1.6113
      2 PN         -3.0545   -2.6961    2.8165 P.3       1 NAD         1.5956
      3 C1B        -3.3870   -1.4655   -3.7493 C.3       1 NAD         0.3881
      4 C1D        -1.0466   -7.7488    0.9637 C.3       1 NAD         0.4061
      5 N1A         0.3327   -4.3756   -5.8351 N.pl3     1 NAD        -0.6273
      6 N1N        -1.8781   -8.6454    1.7210 N.pl3     1 NAD        -0.5583
      7 O1A        -5.8025   -0.7209    1.9602 O.2       1 NAD        -0.8856
      8 O1N        -2.1406   -1.9172    3.7376 O.2       1 NAD        -0.8593
      9 C2A        -0.6730   -3.6612   -6.3956 C.cat     1 NAD         0.2642
     10 C2B        -4.7088   -2.2179   -3.7743 C.3       1 NAD         0.0601
     11 C2D        -1.4237   -7.7116   -0.5116 C.3       1 NAD         0.0453
     12 C2N        -1.5372   -9.9955    1.8889 C.2       1 NAD         0.1596
     13 O2A        -3.6193    0.7112    2.2838 O.3       1 NAD        -0.8856
     14 O2B        -4.9728   -2.7772   -5.0448 O.3       1 NAD        -0.5842
     15 O2D        -0.2618   -7.4415   -1.2930 O.3       1 NAD        -0.5906
     16 O2N        -4.3000   -3.3691    3.3506 O.3       1 NAD        -0.8593
     17 C3B        -5.6859   -1.1235   -3.3927 C.3       1 NAD         0.1244
     18 C3D        -2.4024   -6.5552   -0.5596 C.3       1 NAD         0.1230
     19 C3N        -2.2994  -10.8812    2.5518 C.2       1 NAD        -0.3141
     20 N3A        -1.6207   -2.9132   -5.7896 N.ar      1 NAD        -0.5289
     21 O3         -3.4857   -1.7346    1.5681 O.3       1 NAD        -0.8111
     22 O3B        -5.9299   -0.2876   -4.5240 O.3       1 NAD        -0.5809
     23 O3D        -2.5192   -5.9716   -1.8394 O.3       1 NAD        -0.5696
     24 C4A        -1.4622   -2.9445   -4.4579 C.ar      1 NAD         0.5545
     25 C4B        -4.8969   -0.3300   -2.3559 C.3       1 NAD         0.1103
     26 C4D        -1.8093   -5.5929    0.4555 C.3       1 NAD         0.1131
     27 C4N        -3.6135  -10.4816    3.1747 C.3       1 NAD         0.0373
     28 O4B        -3.4998   -0.4919   -2.6935 O.3       1 NAD        -0.3768
     29 O4D        -1.2285   -6.4173    1.4804 O.3       1 NAD        -0.3868
     30 C5A        -0.4883   -3.6256   -3.7452 C.ar      1 NAD        -0.1482
     31 C5B        -5.1090   -0.8343   -0.9354 C.3       1 NAD         0.1938
     32 C5D        -2.8370   -4.6601    1.0721 C.3       1 NAD         0.2042
     33 C5N        -3.9438   -9.0250    2.9419 C.2       1 NAD        -0.2508
     34 O5B        -4.3412   -0.0420   -0.0445 O.3       1 NAD        -0.5666
     35 O5D        -2.1813   -3.8114    1.9978 O.3       1 NAD        -0.5819
     36 C6A         0.4325   -4.3617   -4.4841 C.ar      1 NAD         0.4701
     37 C6N        -3.1023   -8.2294    2.2604 C.2       1 NAD         0.0602
     38 N6A         1.4542   -5.0834   -3.8434 N.pl3     1 NAD        -0.8326
     39 C7N        -1.8403  -12.2646    2.6626 C.2       1 NAD         0.6894
     40 N7A        -0.6423   -3.4231   -2.3967 N.ar      1 NAD        -0.5467
     41 N7N        -2.7035  -13.0768    3.3625 N.am      1 NAD        -0.6827
     42 O7N        -0.7778  -12.6383    2.1661 O.2       1 NAD        -0.6707
     43 C8A        -1.6905   -2.6331   -2.2917 C.ar      1 NAD         0.6321
     44 N9A        -2.2223   -2.3157   -3.5133 N.pl3     1 NAD        -0.5908
     45 HO2B       -5.8962   -3.3512   -5.2120 H         1 NAD         0.4042
     46 HO2D       -0.3386   -7.3765   -2.3884 H         1 NAD         0.4026
     47 HO3B       -6.6176    0.5667   -4.4385 H         1 NAD         0.4087
     48 HO3D       -3.2009   -5.1228   -1.9967 H         1 NAD         0.4014
     49 H1B        -3.1808   -0.9850   -4.7171 H         1 NAD         0.0980
     50 H1D        -0.0146   -8.0992    1.1131 H         1 NAD         0.0687
     51 H2A        -0.7227   -3.6947   -7.4789 H         1 NAD         0.2140
     52 H2B        -4.7660   -3.1301   -3.1622 H         1 NAD         0.0729
     53 H2D        -1.8015   -8.6484   -0.9471 H         1 NAD         0.0552
     54 H3B        -6.6812   -1.4733   -3.0814 H         1 NAD         0.0816
     55 H2N        -0.5853  -10.3161    1.4404 H         1 NAD         0.1568
     56 H3D        -3.4542   -6.8368   -0.4030 H         1 NAD         0.0592
     57 H4B        -5.1848    0.7311   -2.3894 H         1 NAD         0.1249
     58 H4D        -1.0386   -4.9601   -0.0087 H         1 NAD         0.0936
     59 H4N        -4.4236  -11.0865    2.7414 H         1 NAD         0.0230
     60 H4N        -3.5708  -10.6502    4.2609 H         1 NAD         0.0230
     61 H5N        -4.8860   -8.6182    3.3379 H         1 NAD         0.1485
     62 H6N        -3.3579   -7.1725    2.0943 H         1 NAD         0.2050
     63 H8A        -2.1081   -2.2615   -1.3659 H         1 NAD         0.2170
     64 H5B1       -6.1749   -0.7583   -0.6747 H         1 NAD         0.0385
     65 H5B2       -4.7890   -1.8845   -0.8675 H         1 NAD         0.0385
     66 H5D1       -3.3071   -4.0579    0.2807 H         1 NAD         0.0414
     67 H5D2       -3.6069   -5.2525    1.5882 H         1 NAD         0.0414
     68 H6A1        1.5323   -5.0699   -2.7463 H         1 NAD         0.4757
     69 H6A2        2.1758   -5.6618   -4.4391 H         1 NAD         0.4757
     70 H7N1       -2.4612  -14.1397    3.5095 H         1 NAD         0.3047
     71 H7N2       -3.6356  -12.6630    3.7748 H         1 NAD         0.3047
     72 H72         1.0299   -4.9381   -6.4735 H         1 NAD         0.4683
@<TRIPOS>BOND
     1    1    7 2
     2    1   13 1
     3    1   21 1
     4    1   34 1
     5    2    8 2
     6    2   16 1
     7    2   21 1
     8    2   35 1
     9    3   10 1
    10    3   28 1
    11    3   44 1
    12    3   49 1
    13    4    6 1
    14    4   11 1
    15    4   29 1
    16    4   50 1
    17    5    9 ar
    18    5   36 ar
    19    5   72 1
    20    6   12 1
    21    6   37 1
    22    9   20 ar
    23    9   51 1
    24   10   14 1
    25   10   17 1
    26   10   52 1
    27   11   15 1
    28   11   18 1
    29   11   53 1
    30   12   19 2
    31   12   55 1
    32   14   45 1
    33   15   46 1
    34   17   22 1
    35   17   25 1
    36   17   54 1
    37   18   23 1
    38   18   26 1
    39   18   56 1
    40   19   27 1
    41   19   39 1
    42   20   24 ar
    43   22   47 1
    44   23   48 1
    45   24   30 ar
    46   24   44 ar
    47   25   28 1
    48   25   31 1
    49   25   57 1
    50   26   29 1
    51   26   32 1
    52   26   58 1
    53   27   33 1
    54   27   59 1
    55   27   60 1
    56   30   36 ar
    57   30   40 ar
    58   31   34 1
    59   31   64 1
    60   31   65 1
    61   32   35 1
    62   32   66 1
    63   32   67 1
    64   33   37 2
    65   33   61 1
    66   36   38 1
    67   37   62 1
    68   38   68 1
    69   38   69 1
    70   39   41 am
    71   39   42 2
    72   40   43 ar
    73   41   70 1
    74   41   71 1
    75   43   44 ar
    76   43   63 1
@<TRIPOS>SUBSTRUCTURE
     1 NAD         1 GROUP   0 A     ****
@<TRIPOS>MOLECULE
[[5-(6-aminopurin-9-yl)-3,4-dihydroxy-tetrahydrofuran-2-yl]methoxy-oxido-phosphoryl] [5-(3-carbamoyl-4~{H}-pyridin-1-yl)-3-hydroxy-4-oxido-tetrahydrofuran-2-yl]methyl phosphate
   70    74     1     0     0
SMALL
USER_CHARGES

@<TRIPOS>ATOM
      1 PA         -4.3863   -0.3717    1.5567 P.3       1 NAD         1.5903
      2 PN         -3.0545   -2.6961    2.8165 P.3       1 NAD         1.5847
      3 C1B        -3.3870   -1.4655   -3.7493 C.3       1 NAD         0.4343
      4 C1D        -1.0466   -7.7488    0.9637 C.3       1 NAD         0.3179
      5 N1A         0.3327   -4.3756   -5.8351 N.ar      1 NAD        -0.8071
      6 N1N        -1.8781   -8.6454    1.7210 N.pl3     1 NAD        -0.5077
      7 O1A        -5.8025   -0.7209    1.9602 O.2       1 NAD        -0.8838
      8 O1N        -2.1406   -1.9172    3.7376 O.2       1 NAD        -0.8715
      9 C2A        -0.6730   -3.6612   -6.3956 C.ar      1 NAD         0.6437
     10 C2B        -4.7088   -2.2179   -3.7743 C.3       1 NAD         0.0537
     11 C2D        -1.4237   -7.7116   -0.5116 C.3       1 NAD         0.3545
     12 C2N        -1.5372   -9.9955    1.8889 C.2       1 NAD         0.1642
     13 O2A        -3.6193    0.7112    2.2838 O.3       1 NAD        -0.8838
     14 O2B        -4.9728   -2.7772   -5.0448 O.3       1 NAD        -0.5952
     15 O2D        -0.2618   -7.4415   -1.2930 O.3       1 NAD        -0.8819
     16 O2N        -4.3000   -3.3691    3.3506 O.3       1 NAD        -0.8715
     17 C3B        -5.6859   -1.1235   -3.3927 C.3       1 NAD         0.0833
     18 C3D        -2.4024   -6.5552   -0.5596 C.3       1 NAD         0.0524
     19 C3N        -2.2994  -10.8812    2.5518 C.2       1 NAD        -0.3815
     20 N3A        -1.6207   -2.9132   -5.7896 N.ar      1 NAD        -0.7034
     21 O3         -3.4857   -1.7346    1.5681 O.3       1 NAD        -0.8111
     22 O3B        -5.9299   -0.2876   -4.5240 O.3       1 NAD        -0.5966
     23 O3D        -2.5192   -5.9716   -1.8394 O.3       1 NAD        -0.6458
     24 C4A        -1.4622   -2.9445   -4.4579 C.ar      1 NAD         0.5641
     25 C4B        -4.8969   -0.3300   -2.3559 C.3       1 NAD         0.1170
     26 C4D        -1.8093   -5.5929    0.4555 C.3       1 NAD         0.1230
     27 C4N        -3.6135  -10.4816    3.1747 C.3       1 NAD         0.0802
     28 O4B        -3.4998   -0.4919   -2.6935 O.3       1 NAD        -0.3928
     29 O4D        -1.2285   -6.4173    1.4804 O.3       1 NAD        -0.4587
     30 C5A        -0.4883   -3.6256   -3.7452 C.ar      1 NAD        -0.1995
     31 C5B        -5.1090   -0.8343   -0.9354 C.3       1 NAD         0.1946
     32 C5D        -2.8370   -4.6601    1.0721 C.3       1 NAD         0.1725
     33 C5N        -3.9438   -9.0250    2.9419 C.2       1 NAD        -0.3031
     34 O5B        -4.3412   -0.0420   -0.0445 O.3       1 NAD        -0.5653
     35 O5D        -2.1813   -3.8114    1.9978 O.3       1 NAD        -0.5781
     36 C6A         0.4325   -4.3617   -4.4841 C.ar      1 NAD         0.7033
     37 C6N        -3.1023   -8.2294    2.2604 C.2       1 NAD         0.0927
     38 N6A         1.4542   -5.0834   -3.8434 N.pl3     1 NAD        -0.9333
     39 C7N        -1.8403  -12.2646    2.6626 C.2       1 NAD         0.7113
     40 N7A        -0.6423   -3.4231   -2.3967 N.ar      1 NAD        -0.5840
     41 N7N        -2.7035  -13.0768    3.3625 N.am      1 NAD        -0.7008
     42 O7N        -0.7778  -12.6383    2.1661 O.2       1 NAD        -0.6682
     43 C8A        -1.6905   -2.6331   -2.2917 C.ar      1 NAD         0.5898
     44 N9A        -2.2223   -2.3157   -3.5133 N.pl3     1 NAD        -0.6808
     45 HO2B       -5.8962   -3.3512   -5.2120 H         1 NAD         0.4029
     46 HO3B       -6.6176    0.5667   -4.4385 H         1 NAD         0.3988
     47 HO3D       -3.2009   -5.1228   -1.9967 H         1 NAD         0.4147
     48 H1B        -3.1808   -0.9850   -4.7171 H         1 NAD         0.0897
     49 H1D        -0.0146   -8.0992    1.1131 H         1 NAD         0.0324
     50 H2A        -0.7227   -3.6947   -7.4789 H         1 NAD         0.0301
     51 H2B        -4.7660   -3.1301   -3.1622 H         1 NAD         0.0785
     52 H2D        -1.8015   -8.6484   -0.9471 H         1 NAD        -0.0300
     53 H3B        -6.6812   -1.4733   -3.0814 H         1 NAD         0.0853
     54 H2N        -0.5853  -10.3161    1.4404 H         1 NAD         0.1568
     55 H3D        -3.4542   -6.8368   -0.4030 H         1 NAD         0.0684
     56 H4B        -5.1848    0.7311   -2.3894 H         1 NAD         0.1189
     57 H4D        -1.0386   -4.9601   -0.0087 H         1 NAD         0.0580
     58 H4N        -4.4236  -11.0865    2.7414 H         1 NAD         0.0026
     59 H4N        -3.5708  -10.6502    4.2609 H         1 NAD         0.0026
     60 H5N        -4.8860   -8.6182    3.3379 H         1 NAD         0.1222
     61 H6N        -3.3579   -7.1725    2.0943 H         1 NAD         0.1889
     62 H8A        -2.1081   -2.2615   -1.3659 H         1 NAD         0.1375
     63 H5B1       -6.1749   -0.7583   -0.6747 H         1 NAD         0.0294
     64 H5B2       -4.7890   -1.8845   -0.8675 H         1 NAD         0.0294
     65 H5D1       -3.3071   -4.0579    0.2807 H         1 NAD         0.0287
     66 H5D2       -3.6069   -5.2525    1.5882 H         1 NAD         0.0287
     67 H6A1        1.5323   -5.0699   -2.7463 H         1 NAD         0.4128
     68 H6A2        2.1758   -5.6618   -4.4391 H         1 NAD         0.4128
     69 H7N1       -2.4612  -14.1397    3.5095 H         1 NAD         0.2889
     70 H7N2       -3.6356  -12.6630    3.7748 H         1 NAD         0.2889
@<TRIPOS>BOND
     1    1    7 2
     2    1   13 1
     3    1   21 1
     4    1   34 1
     5    2    8 2
     6    2   16 1
     7    2   21 1
     8    2   35 1
     9    3   10 1
    10    3   28 1
    11    3   44 1
    12    3   48 1
    13    4    6 1
    14    4   11 1
    15    4   29 1
    16    4   49 1
    17    5    9 ar
    18    5   36 ar
    19    6   12 1
    20    6   37 1
    21    9   20 ar
    22    9   50 1
    23   10   14 1
    24   10   17 1
    25   10   51 1
    26   11   15 1
    27   11   18 1
    28   11   52 1
    29   12   19 2
    30   12   54 1
    31   14   45 1
    32   17   22 1
    33   17   25 1
    34   17   53 1
    35   18   23 1
    36   18   26 1
    37   18   55 1
    38   19   27 1
    39   19   39 1
    40   20   24 ar
    41   22   46 1
    42   23   47 1
    43   24   30 ar
    44   24   44 ar
    45   25   28 1
    46   25   31 1
    47   25   56 1
    48   26   29 1
    49   26   32 1
    50   26   57 1
    51   27   33 1
    52   27   58 1
    53   27   59 1
    54   30   36 ar
    55   30   40 ar
    56   31   34 1
    57   31   63 1
    58   31   64 1
    59   32   35 1
    60   32   65 1
    61   32   66 1
    62   33   37 2
    63   33   60 1
    64   36   38 1
    65   37   61 1
    66   38   67 1
    67   38   68 1
    68   39   41 am
    69   39   42 2
    70   40   43 ar
    71   41   69 1
    72   41   70 1
    73   43   44 ar
    74   43   62 1
@<TRIPOS>SUBSTRUCTURE
     1 NAD         1 GROUP   0 A     ****
