@<TRIPOS>MOLECULE
[[5-(6-aminopurin-9-yl)-3,4-dihydroxy-tetrahydrofuran-2-yl]methoxy-oxido-phosphoryl] [5-(3-carbamoyl-4~{H}-pyridin-1-yl)-3,4-dihydroxy-tetrahydrofuran-2-yl]methyl phosphate
   71    75     1     0     0
SMALL
USER_CHARGES

@<TRIPOS>ATOM
      1  PA        -4.3863   -0.3717    1.5567 P.3       1 NAI         1.5975
      2  PN        -3.0545   -2.6961    2.8165 P.3       1 NAI         1.5999
      3  C1B       -3.3870   -1.4655   -3.7493 C.3       1 NAI         0.4343
      4  C1D       -1.0466   -7.7488    0.9637 C.3       1 NAI         0.4065
      5  N1A        0.3327   -4.3756   -5.8351 N.ar      1 NAI        -0.8042
      6  N1N       -1.8781   -8.6454    1.7210 N.pl3     1 NAI        -0.5522
      7  O1A       -5.8025   -0.7209    1.9602 O.2       1 NAI        -0.8736
      8  O1N       -2.1406   -1.9172    3.7376 O.2       1 NAI        -0.8685
      9  C2A       -0.6730   -3.6612   -6.3956 C.ar      1 NAI         0.6507
     10  C2B       -4.7088   -2.2179   -3.7743 C.3       1 NAI         0.0572
     11  C2D       -1.4237   -7.7116   -0.5116 C.3       1 NAI         0.0646
     12  C2N       -1.5372   -9.9955    1.8889 C.2       1 NAI         0.1728
     13  O2A       -3.6193    0.7112    2.2838 O.3       1 NAI        -0.8736
     14  O2B       -4.9728   -2.7772   -5.0448 O.3       1 NAI        -0.5910
     15  O2D       -0.2618   -7.4415   -1.2930 O.3       1 NAI        -0.6068
     16  O2N       -4.3000   -3.3691    3.3506 O.3       1 NAI        -0.8685
     17  C3B       -5.6859   -1.1235   -3.3927 C.3       1 NAI         0.0841
     18  C3D       -2.4024   -6.5552   -0.5596 C.3       1 NAI         0.0717
     19  C3N       -2.2994  -10.8812    2.5518 C.2       1 NAI        -0.3304
     20  N3A       -1.6207   -2.9132   -5.7896 N.ar      1 NAI        -0.7096
     21  O3        -3.4857   -1.7346    1.5681 O.3       1 NAI        -0.8150
     22  O3B       -5.9299   -0.2876   -4.5240 O.3       1 NAI        -0.6037
     23  O3D       -2.5192   -5.9716   -1.8394 O.3       1 NAI        -0.5846
     24  C4A       -1.4622   -2.9445   -4.4579 C.ar      1 NAI         0.5672
     25  C4B       -4.8969   -0.3300   -2.3559 C.3       1 NAI         0.1083
     26  C4D       -1.8093   -5.5929    0.4555 C.3       1 NAI         0.1085
     27  C4N       -3.6135  -10.4816    3.1747 C.3       1 NAI         0.0431
     28  O4B       -3.4998   -0.4919   -2.6935 O.3       1 NAI        -0.4042
     29  O4D       -1.2285   -6.4173    1.4804 O.3       1 NAI        -0.3867
     30  C5A       -0.4883   -3.6256   -3.7452 C.ar      1 NAI        -0.2035
     31  C5B       -5.1090   -0.8343   -0.9354 C.3       1 NAI         0.1867
     32  C5D       -2.8370   -4.6601    1.0721 C.3       1 NAI         0.2034
     33  C5N       -3.9438   -9.0250    2.9419 C.2       1 NAI        -0.2554
     34  O5B       -4.3412   -0.0420   -0.0445 O.3       1 NAI        -0.5724
     35  O5D       -2.1813   -3.8114    1.9978 O.3       1 NAI        -0.5698
     36  C6A        0.4325   -4.3617   -4.4841 C.ar      1 NAI         0.7160
     37  C6N       -3.1023   -8.2294    2.2604 C.2       1 NAI         0.0601
     38  N6A        1.4542   -5.0834   -3.8434 N.pl3     1 NAI        -0.9412
     39  C7N       -1.8403  -12.2646    2.6626 C.2       1 NAI         0.6915
     40  N7A       -0.6423   -3.4231   -2.3967 N.ar      1 NAI        -0.5755
     41  N7N       -2.7035  -13.0768    3.3625 N.am      1 NAI        -0.6871
     42  O7N       -0.7778  -12.6383    2.1661 O.2       1 NAI        -0.6737
     43  C8A       -1.6905   -2.6331   -2.2917 C.ar      1 NAI         0.5838
     44  N9A       -2.2223   -2.3157   -3.5133 N.pl3     1 NAI        -0.6884
     45 HO2B       -5.8275   -3.2391   -4.9848 H         1 NAI         0.4061
     46 HO2D       -0.5395   -7.4253   -2.2255 H         1 NAI         0.4269
     47 HO3B       -6.3014   -0.8600   -5.2121 H         1 NAI         0.4063
     48 HO3D       -2.8268   -6.6728   -2.4334 H         1 NAI         0.4038
     49  H1B       -3.1838   -0.9336   -4.7075 H         1 NAI         0.0905
     50  H1D        0.0038   -8.0229    1.1181 H         1 NAI         0.0868
     51  H2A       -0.7227   -3.6947   -7.4789 H         1 NAI         0.0336
     52  H2B       -4.7206   -3.0199   -3.0262 H         1 NAI         0.0811
     53  H2D       -1.8693   -8.6283   -0.8433 H         1 NAI         0.0698
     54  H3B       -6.6499   -1.5042   -3.0421 H         1 NAI         0.0820
     55  H2N       -0.5921  -10.2613    1.4278 H         1 NAI         0.1651
     56  H3D       -3.4452   -6.8968   -0.2659 H         1 NAI         0.0688
     57  H4B       -5.1256    0.7429   -2.3991 H         1 NAI         0.1069
     58  H4D       -0.9925   -4.9954    0.0125 H         1 NAI         0.0879
     59  H4N       -4.4185  -11.0949    2.7536 H         1 NAI         0.0174
     60  H4N       -3.5783  -10.6667    4.2544 H         1 NAI         0.0174
     61  H5N       -4.8762   -8.6314    3.3327 H         1 NAI         0.1469
     62  H6N       -3.3309   -7.1847    2.0826 H         1 NAI         0.2059
     63  H8A       -2.1081   -2.2615   -1.3659 H         1 NAI         0.1378
     64 H5B1       -4.7880   -1.8764   -0.8462 H         1 NAI         0.0352
     65 H5B2       -6.1637   -0.7588   -0.6546 H         1 NAI         0.0352
     66 H5D1       -3.6014   -5.2374    1.5941 H         1 NAI         0.0378
     67 H5D2       -3.3042   -4.0517    0.2964 H         1 NAI         0.0378
     68 H6A1        2.0783   -5.6454   -4.3906 H         1 NAI         0.4212
     69 H6A2        1.4894   -5.1037   -2.8418 H         1 NAI         0.4212
     70 H7N1       -2.4975  -14.0597    3.5083 H         1 NAI         0.3011
     71 H7N2       -3.5735  -12.7349    3.7588 H         1 NAI         0.3011
@<TRIPOS>BOND
     1    1    7 2
     2    1   13 1
     3    1   21 1
     4    1   34 1
     5    2    8 2
     6    2   16 1
     7    2   21 1
     8    2   35 1
     9    3   10 1
    10    3   28 1
    11    3   44 1
    12    3   49 1
    13    4    6 1
    14    4   11 1
    15    4   29 1
    16    4   50 1
    17    5    9 ar
    18    5   36 ar
    19    6   12 1
    20    6   37 1
    21    9   20 ar
    22    9   51 1
    23   10   14 1
    24   10   17 1
    25   10   52 1
    26   11   15 1
    27   11   18 1
    28   11   53 1
    29   12   19 2
    30   12   55 1
    31   14   45 1
    32   15   46 1
    33   17   22 1
    34   17   25 1
    35   17   54 1
    36   18   23 1
    37   18   26 1
    38   18   56 1
    39   19   27 1
    40   19   39 1
    41   20   24 ar
    42   22   47 1
    43   23   48 1
    44   24   30 ar
    45   24   44 ar
    46   25   28 1
    47   25   31 1
    48   25   57 1
    49   26   29 1
    50   26   32 1
    51   26   58 1
    52   27   33 1
    53   27   59 1
    54   27   60 1
    55   30   36 ar
    56   30   40 ar
    57   31   34 1
    58   31   64 1
    59   31   65 1
    60   32   35 1
    61   32   66 1
    62   32   67 1
    63   33   37 2
    64   33   61 1
    65   36   38 1
    66   37   62 1
    67   38   68 1
    68   38   69 1
    69   39   41 am
    70   39   42 2
    71   40   43 ar
    72   41   70 1
    73   41   71 1
    74   43   44 ar
    75   43   63 1
@<TRIPOS>SUBSTRUCTURE
     1 NAI         1 GROUP   0 A     ****
