@<TRIPOS>MOLECULE
*****
   71    75     1     0     0
SMALL
NO_CHARGES

@<TRIPOS>ATOM
      1  PA        10.0130   -7.8330  158.3180 P.3       1 NAI         0.0000
      2  PN        10.2930   -9.5180  155.7510 P.3       1 NAI         0.0000
      3  C1B        4.8580   -4.7500  158.5490 C.3       1 NAI         0.0000
      4  C1D        7.5680  -13.3550  153.3620 C.3       1 NAI         0.0000
      5  N1A       -0.1430   -3.6070  157.8640 N.ar      1 NAI         0.0000
      6  N1N        8.5860  -13.8140  152.3630 N.pl3     1 NAI         0.0000
      7  O1A        9.6400   -8.2030  159.7010 O.2       1 NAI         0.0000
      8  O1N       10.1490   -8.3020  154.9200 O.2       1 NAI         0.0000
      9  C2A        0.9650   -3.1620  157.2630 C.ar      1 NAI         0.0000
     10  C2B        5.8050   -4.6610  159.7390 C.3       1 NAI         0.0000
     11  C2D        7.9550  -13.5520  154.8300 C.3       1 NAI         0.0000
     12  C2N        8.1520  -14.4110  151.1920 C.2       1 NAI         0.0000
     13  O2A       11.3590   -7.2790  158.0380 O.3       1 NAI         0.0000
     14  O2B        5.6720   -3.4890  160.5130 O.3       1 NAI         0.0000
     15  O2D        7.7370  -14.8550  155.3220 O.3       1 NAI         0.0000
     16  O2N       11.6140  -10.1790  155.8630 O.3       1 NAI         0.0000
     17  C3B        7.1460   -4.7740  159.0210 C.3       1 NAI         0.0000
     18  C3D        6.9910  -12.5550  155.4660 C.3       1 NAI         0.0000
     19  C3N        8.9530  -14.7260  150.1480 C.2       1 NAI         0.0000
     20  N3A        2.2330   -3.5150  157.4880 N.ar      1 NAI         0.0000
     21  O3         9.7500   -9.1630  157.3100 O.3       1 NAI         0.0000
     22  O3B        7.6830   -3.5180  158.6270 O.3       1 NAI         0.0000
     23  O3D        5.6830  -13.0940  155.5930 O.3       1 NAI         0.0000
     24  C4A        2.3250   -4.4860  158.4450 C.ar      1 NAI         0.0000
     25  C4B        6.7950   -5.6160  157.7720 C.3       1 NAI         0.0000
     26  C4D        6.9650  -11.4200  154.4350 C.3       1 NAI         0.0000
     27  C4N       10.4440  -14.4490  150.2060 C.3       1 NAI         0.0000
     28  O4B        5.3750   -5.7820  157.7860 O.3       1 NAI         0.0000
     29  O4D        7.4000  -11.9830  153.1970 O.3       1 NAI         0.0000
     30  C5A        1.2370   -5.0660  159.1500 C.ar      1 NAI         0.0000
     31  C5B        7.4820   -6.9830  157.7820 C.3       1 NAI         0.0000
     32  C5D        7.8730  -10.2420  154.8110 C.3       1 NAI         0.0000
     33  C5N       10.8220  -13.7990  151.5150 C.2       1 NAI         0.0000
     34  O5B        8.8700   -6.7350  157.7270 O.3       1 NAI         0.0000
     35  O5D        9.1640  -10.6610  155.2040 O.3       1 NAI         0.0000
     36  C6A       -0.0440   -4.5470  158.8320 C.ar      1 NAI         0.0000
     37  C6N        9.9320  -13.5250  152.4810 C.2       1 NAI         0.0000
     38  N6A       -1.1650   -4.9340  159.4530 N.pl3     1 NAI         0.0000
     39  C7N        8.4280  -15.3220  148.9170 C.2       1 NAI         0.0000
     40  N7A        1.7040   -6.0400  160.0230 N.ar      1 NAI         0.0000
     41  N7N        7.1110  -15.2040  148.7260 N.am      1 NAI         0.0000
     42  O7N        9.1220  -15.8810  148.0730 O.2       1 NAI         0.0000
     43  C8A        3.0000   -6.0250  159.8460 C.ar      1 NAI         0.0000
     44  N9A        3.4600   -5.0880  158.9450 N.pl3     1 NAI         0.0000
     45 HO2B        5.6070   -2.7340  159.9370 H         1 NAI         0.0000
     46 HO2D        6.8020  -14.9820  155.3740 H         1 NAI         0.0000
     47 HO3B        7.0230   -3.0280  158.1500 H         1 NAI         0.0000
     48 HO3D        5.5760  -13.3940  156.4860 H         1 NAI         0.0000
     49  H1B        4.7970   -3.8370  157.9620 H         1 NAI         0.0000
     50  H1D        6.6410  -13.8680  153.1050 H         1 NAI         0.0000
     51  H2A        0.8160   -2.4110  156.5010 H         1 NAI         0.0000
     52  H2B        5.6730   -5.5350  160.3760 H         1 NAI         0.0000
     53  H2D        8.9820  -13.2430  155.0130 H         1 NAI         0.0000
     54  H3B        7.8800   -5.2640  159.6610 H         1 NAI         0.0000
     55  H2N        7.1050  -14.6500  151.1510 H         1 NAI         0.0000
     56  H3D        7.3080  -12.2100  156.4480 H         1 NAI         0.0000
     57  H4B        7.0600   -5.0820  156.8580 H         1 NAI         0.0000
     58  H4D        5.9520  -11.0380  154.3040 H         1 NAI         0.0000
     59  H4N       11.0180  -15.3570  150.0500 H         1 NAI         0.0000
     60  H4N       10.7200  -13.7840  149.4060 H         1 NAI         0.0000
     61  H5N       11.8530  -13.5180  151.6530 H         1 NAI         0.0000
     62  H6N       10.2990  -13.0390  153.3710 H         1 NAI         0.0000
     63  H8A        3.6540   -6.6870  160.3950 H         1 NAI         0.0000
     64 H5B1        7.2190   -7.5470  158.6780 H         1 NAI         0.0000
     65 H5B2        7.1840   -7.5750  156.9160 H         1 NAI         0.0000
     66 H5D1        7.9610   -9.5550  153.9700 H         1 NAI         0.0000
     67 H5D2        7.4270   -9.6870  155.6380 H         1 NAI         0.0000
     68 H6A1       -2.0500   -4.5250  159.1930 H         1 NAI         0.0000
     69 H6A2       -1.1170   -5.6270  160.1860 H         1 NAI         0.0000
     70 H7N1        6.7040  -15.5570  147.8720 H         1 NAI         0.0000
     71 H7N2        6.5340  -14.7160  149.4010 H         1 NAI         0.0000
@<TRIPOS>BOND
     1    1    7 2
     2    1   13 1
     3    1   21 1
     4    1   34 1
     5    2    8 2
     6    2   16 1
     7    2   21 1
     8    2   35 1
     9    3   10 1
    10    3   28 1
    11    3   44 1
    12    3   49 1
    13    4    6 1
    14    4   11 1
    15    4   29 1
    16    4   50 1
    17    5    9 ar
    18    5   36 ar
    19    6   12 1
    20    6   37 1
    21    9   20 ar
    22    9   51 1
    23   10   14 1
    24   10   17 1
    25   10   52 1
    26   11   15 1
    27   11   18 1
    28   11   53 1
    29   12   19 2
    30   12   55 1
    31   14   45 1
    32   15   46 1
    33   17   22 1
    34   17   25 1
    35   17   54 1
    36   18   23 1
    37   18   26 1
    38   18   56 1
    39   19   27 1
    40   19   39 1
    41   20   24 ar
    42   22   47 1
    43   23   48 1
    44   24   30 ar
    45   24   44 ar
    46   25   28 1
    47   25   31 1
    48   25   57 1
    49   26   29 1
    50   26   32 1
    51   26   58 1
    52   27   33 1
    53   27   59 1
    54   27   60 1
    55   30   36 ar
    56   30   40 ar
    57   31   34 1
    58   31   64 1
    59   31   65 1
    60   32   35 1
    61   32   66 1
    62   32   67 1
    63   33   37 2
    64   33   61 1
    65   36   38 1
    66   37   62 1
    67   38   68 1
    68   38   69 1
    69   39   41 am
    70   39   42 2
    71   40   43 ar
    72   41   70 1
    73   41   71 1
    74   43   44 ar
    75   43   63 1
@<TRIPOS>SUBSTRUCTURE
     1 NAI         1 GROUP   0 A     ****
