@<TRIPOS>MOLECULE
2-oxopentanedioate
   14    13     1     0     0
SMALL
USER_CHARGES

@<TRIPOS>ATOM
      1 C1         -0.2145   -0.8190    0.2489 C.3       1 ALP        -0.1570
      2 C2          0.4195    0.1908   -0.6982 C.3       1 ALP        -0.1747
      3 C3          0.2721   -0.2221   -2.1438 C.2       1 ALP         0.9037
      4 O1         -0.2834   -1.2379   -2.5383 O.co2     1 ALP        -0.8769
      5 O2          0.8381    0.6870   -2.9802 O.co2     1 ALP        -0.8769
      6 C4         -0.0511   -0.3797    1.6794 C.2       1 ALP         0.4534
      7 O3          0.5156    0.6501    2.0218 O.2       1 ALP        -0.5966
      8 C5         -0.6167   -1.1817    2.8169 C.2       1 ALP         0.8252
      9 O4         -0.4402   -0.7005    3.9743 O.co2     1 ALP        -0.8374
     10 O5         -1.2079   -2.2516    2.4922 O.co2     1 ALP        -0.8374
     11 H1         -1.2876   -0.9088    0.0243 H         1 ALP         0.0654
     12 H2          0.2704   -1.7978    0.1194 H         1 ALP         0.0654
     13 H3         -0.0654    1.1696   -0.5687 H         1 ALP         0.0219
     14 H4          1.4926    0.2807   -0.4736 H         1 ALP         0.0219
@<TRIPOS>BOND
     1    1    2 1
     2    1    6 1
     3    1   11 1
     4    1   12 1
     5    2    3 1
     6    2   13 1
     7    2   14 1
     8    3    4 2
     9    3    5 1
    10    6    7 2
    11    6    8 1
    12    8    9 1
    13    8   10 2
@<TRIPOS>SUBSTRUCTURE
     1 ALP         1 GROUP   0 A     ****
@<TRIPOS>MOLECULE
5-hydroxy-2,5-dioxo-pentanoate
   15    14     1     0     0
SMALL
USER_CHARGES

@<TRIPOS>ATOM
      1 C1         -0.2145   -0.8190    0.2489 C.3       1 ALP        -0.2006
      2 C2          0.4195    0.1908   -0.6982 C.3       1 ALP        -0.1020
      3 C3          0.2721   -0.2221   -2.1438 C.2       1 ALP         0.6460
      4 O1         -0.2834   -1.2379   -2.5383 O.2       1 ALP        -0.5437
      5 O2          0.8381    0.6870   -2.9802 O.3       1 ALP        -0.6322
      6 C4         -0.0511   -0.3797    1.6794 C.2       1 ALP         0.4457
      7 O3          0.5156    0.6501    2.0218 O.2       1 ALP        -0.5537
      8 C5         -0.6167   -1.1817    2.8169 C.2       1 ALP         0.8437
      9 O4         -0.4402   -0.7005    3.9743 O.co2     1 ALP        -0.8050
     10 O5         -1.2079   -2.2516    2.4922 O.co2     1 ALP        -0.8050
     11 H1         -1.2876   -0.9088    0.0243 H         1 ALP         0.0733
     12 H2          0.2704   -1.7978    0.1194 H         1 ALP         0.0733
     13 H3         -0.0654    1.1696   -0.5687 H         1 ALP         0.0666
     14 H4          1.4926    0.2807   -0.4736 H         1 ALP         0.0666
     15 H5          0.8115    0.5249   -4.0679 H         1 ALP         0.4270
@<TRIPOS>BOND
     1    1    2 1
     2    1    6 1
     3    1   11 1
     4    1   12 1
     5    2    3 1
     6    2   13 1
     7    2   14 1
     8    3    4 2
     9    3    5 1
    10    5   15 1
    11    6    7 2
    12    6    8 1
    13    8    9 1
    14    8   10 2
@<TRIPOS>SUBSTRUCTURE
     1 ALP         1 GROUP   0 A     ****
