[[5-(6-aminopurin-9-yl)-3,4-dihydroxy-tetrahydrofuran-2-yl]methoxy-oxido-phosphoryl] [5-(3-carbamoyl-4~{H}-pyridin-1-yl)-3,4-dihydroxy-tetrahydrofuran-2-yl]methyl phosphate
                    3D
 Structure written by MMmdl.
 71 75  0  0  1  0            999 V2000
   -4.3863   -0.3717    1.5567 P   0  0  1  0  0  0
   -3.0545   -2.6961    2.8165 P   0  0  1  0  0  0
   -3.3870   -1.4655   -3.7493 C   0  0  1  0  0  0
   -1.0466   -7.7488    0.9637 C   0  0  1  0  0  0
    0.3327   -4.3756   -5.8351 N   0  0  0  0  0  0
   -1.8781   -8.6454    1.7210 N   0  0  0  0  0  0
   -5.8025   -0.7209    1.9602 O   0  0  0  0  0  0
   -2.1406   -1.9172    3.7376 O   0  0  0  0  0  0
   -0.6730   -3.6612   -6.3956 C   0  0  0  0  0  0
   -4.7088   -2.2179   -3.7743 C   0  0  2  0  0  0
   -1.4237   -7.7116   -0.5116 C   0  0  2  0  0  0
   -1.5372   -9.9955    1.8889 C   0  0  0  0  0  0
   -3.6193    0.7112    2.2838 O   0  0  0  0  0  0
   -4.9728   -2.7772   -5.0448 O   0  0  0  0  0  0
   -0.2618   -7.4415   -1.2930 O   0  0  0  0  0  0
   -4.3000   -3.3691    3.3506 O   0  0  0  0  0  0
   -5.6859   -1.1235   -3.3927 C   0  0  2  0  0  0
   -2.4024   -6.5552   -0.5596 C   0  0  2  0  0  0
   -2.2994  -10.8812    2.5518 C   0  0  0  0  0  0
   -1.6207   -2.9132   -5.7896 N   0  0  0  0  0  0
   -3.4857   -1.7346    1.5681 O   0  0  0  0  0  0
   -5.9299   -0.2876   -4.5240 O   0  0  0  0  0  0
   -2.5192   -5.9716   -1.8394 O   0  0  0  0  0  0
   -1.4622   -2.9445   -4.4579 C   0  0  0  0  0  0
   -4.8969   -0.3300   -2.3559 C   0  0  2  0  0  0
   -1.8093   -5.5929    0.4555 C   0  0  2  0  0  0
   -3.6135  -10.4816    3.1747 C   0  0  0  0  0  0
   -3.4998   -0.4919   -2.6935 O   0  0  0  0  0  0
   -1.2285   -6.4173    1.4804 O   0  0  0  0  0  0
   -0.4883   -3.6256   -3.7452 C   0  0  0  0  0  0
   -5.1090   -0.8343   -0.9354 C   0  0  0  0  0  0
   -2.8370   -4.6601    1.0721 C   0  0  0  0  0  0
   -3.9438   -9.0250    2.9419 C   0  0  0  0  0  0
   -4.3412   -0.0420   -0.0445 O   0  0  0  0  0  0
   -2.1813   -3.8114    1.9978 O   0  0  0  0  0  0
    0.4325   -4.3617   -4.4841 C   0  0  0  0  0  0
   -3.1023   -8.2294    2.2604 C   0  0  0  0  0  0
    1.4542   -5.0834   -3.8434 N   0  0  0  0  0  0
   -1.8403  -12.2646    2.6626 C   0  0  0  0  0  0
   -0.6423   -3.4231   -2.3967 N   0  0  0  0  0  0
   -2.7035  -13.0768    3.3625 N   0  0  0  0  0  0
   -0.7778  -12.6383    2.1661 O   0  0  0  0  0  0
   -1.6905   -2.6331   -2.2917 C   0  0  0  0  0  0
   -2.2223   -2.3157   -3.5133 N   0  0  0  0  0  0
   -5.8962   -3.3512   -5.2120 H   0  0  0  0  0  0
   -0.3386   -7.3765   -2.3884 H   0  0  0  0  0  0
   -6.6176    0.5667   -4.4385 H   0  0  0  0  0  0
   -3.2009   -5.1228   -1.9967 H   0  0  0  0  0  0
   -3.1808   -0.9850   -4.7171 H   0  0  0  0  0  0
   -0.0146   -8.0992    1.1131 H   0  0  0  0  0  0
   -0.7227   -3.6947   -7.4789 H   0  0  0  0  0  0
   -4.7660   -3.1301   -3.1622 H   0  0  0  0  0  0
   -1.8015   -8.6484   -0.9471 H   0  0  0  0  0  0
   -6.6812   -1.4733   -3.0814 H   0  0  0  0  0  0
   -0.5853  -10.3161    1.4404 H   0  0  0  0  0  0
   -3.4542   -6.8368   -0.4030 H   0  0  0  0  0  0
   -5.1848    0.7311   -2.3894 H   0  0  0  0  0  0
   -1.0386   -4.9601   -0.0087 H   0  0  0  0  0  0
   -4.4236  -11.0865    2.7414 H   0  0  0  0  0  0
   -3.5708  -10.6502    4.2609 H   0  0  0  0  0  0
   -4.8860   -8.6182    3.3379 H   0  0  0  0  0  0
   -3.3579   -7.1725    2.0943 H   0  0  0  0  0  0
   -2.1081   -2.2615   -1.3659 H   0  0  0  0  0  0
   -6.1749   -0.7583   -0.6747 H   0  0  0  0  0  0
   -4.7890   -1.8845   -0.8675 H   0  0  0  0  0  0
   -3.3071   -4.0579    0.2807 H   0  0  0  0  0  0
   -3.6069   -5.2525    1.5882 H   0  0  0  0  0  0
    1.5323   -5.0699   -2.7463 H   0  0  0  0  0  0
    2.1758   -5.6618   -4.4391 H   0  0  0  0  0  0
   -2.4612  -14.1397    3.5095 H   0  0  0  0  0  0
   -3.6356  -12.6630    3.7748 H   0  0  0  0  0  0
  1  7  2  0  0  0
  1 13  1  0  0  0
  1 21  1  0  0  0
  1 34  1  0  0  0
  2  8  2  0  0  0
  2 16  1  0  0  0
  2 21  1  0  0  0
  2 35  1  0  0  0
  3 10  1  0  0  0
  3 28  1  0  0  0
  3 44  1  0  0  0
  3 49  1  0  0  0
  4  6  1  0  0  0
  4 11  1  0  0  0
  4 29  1  0  0  0
  4 50  1  0  0  0
  5  9  1  0  0  0
  5 36  2  0  0  0
  6 12  1  0  0  0
  6 37  1  0  0  0
  9 20  2  0  0  0
  9 51  1  0  0  0
 10 14  1  0  0  0
 10 17  1  0  0  0
 10 52  1  0  0  0
 11 15  1  0  0  0
 11 18  1  0  0  0
 11 53  1  0  0  0
 12 19  2  0  0  0
 12 55  1  0  0  0
 14 45  1  0  0  0
 15 46  1  0  0  0
 17 22  1  0  0  0
 17 25  1  0  0  0
 17 54  1  0  0  0
 18 23  1  0  0  0
 18 26  1  0  0  0
 18 56  1  0  0  0
 19 27  1  0  0  0
 19 39  1  0  0  0
 20 24  1  0  0  0
 22 47  1  0  0  0
 23 48  1  0  0  0
 24 30  2  0  0  0
 24 44  1  0  0  0
 25 28  1  0  0  0
 25 31  1  0  0  0
 25 57  1  0  0  0
 26 29  1  0  0  0
 26 32  1  0  0  0
 26 58  1  0  0  0
 27 33  1  0  0  0
 27 59  1  0  0  0
 27 60  1  0  0  0
 30 36  1  0  0  0
 30 40  1  0  0  0
 31 34  1  0  0  0
 31 64  1  0  0  0
 31 65  1  0  0  0
 32 35  1  0  0  0
 32 66  1  0  0  0
 32 67  1  0  0  0
 33 37  2  0  0  0
 33 61  1  0  0  0
 36 38  1  0  0  0
 37 62  1  0  0  0
 38 68  1  0  0  0
 38 69  1  0  0  0
 39 41  1  0  0  0
 39 42  2  0  0  0
 40 43  2  0  0  0
 41 70  1  0  0  0
 41 71  1  0  0  0
 43 44  1  0  0  0
 43 63  1  0  0  0
M  END
> <s_m_source_file>
C:\Users\rustenba\Documents\Visual Studio 2015\Projects\CTProject\CTProject\mcce-charges\epik_data\output_8.0\NADH\NADH-input.mol2

> <i_m_source_file_index>
1

> <r_epik_Ionization_Penalty>
  0.0023

> <r_epik_Ionization_Penalty_Charging>
  0.0000

> <r_epik_Ionization_Penalty_Neutral>
  0.0023

> <r_epik_State_Penalty>
  0.0027

> <i_epik_Tot_Q>
0

> <s_epik_Chemistry_Notes>
This compound has an imine and may undergo hydrolysis. This compound contains an acetal/aminal-like group ( X-CH(R)-Y where X, Y are N, S, or O) that may be acid/base labile, releasing an aldehyde.

$$$$
[[5-(6-aminopurin-9-yl)-3,4-dihydroxy-tetrahydrofuran-2-yl]methoxy-oxido-phosphoryl] [5-(3-carbamoyl-4~{H}-pyridin-1-yl)-3,4-dihydroxy-tetrahydrofuran-2-yl]methyl phosphate
                    3D
 Structure written by MMmdl.
 70 74  0  0  1  0            999 V2000
   -4.3863   -0.3717    1.5567 P   0  0  1  0  0  0
   -3.0545   -2.6961    2.8165 P   0  0  1  0  0  0
   -3.3870   -1.4655   -3.7493 C   0  0  1  0  0  0
   -1.0466   -7.7488    0.9637 C   0  0  1  0  0  0
    0.3327   -4.3756   -5.8351 N   0  0  0  0  0  0
   -1.8781   -8.6454    1.7210 N   0  0  0  0  0  0
   -5.8025   -0.7209    1.9602 O   0  0  0  0  0  0
   -2.1406   -1.9172    3.7376 O   0  0  0  0  0  0
   -0.6730   -3.6612   -6.3956 C   0  0  0  0  0  0
   -4.7088   -2.2179   -3.7743 C   0  0  2  0  0  0
   -1.4237   -7.7116   -0.5116 C   0  0  2  0  0  0
   -1.5372   -9.9955    1.8889 C   0  0  0  0  0  0
   -3.6193    0.7112    2.2838 O   0  0  0  0  0  0
   -4.9728   -2.7772   -5.0448 O   0  0  0  0  0  0
   -0.2618   -7.4415   -1.2930 O   0  0  0  0  0  0
   -4.3000   -3.3691    3.3506 O   0  0  0  0  0  0
   -5.6859   -1.1235   -3.3927 C   0  0  2  0  0  0
   -2.4024   -6.5552   -0.5596 C   0  0  2  0  0  0
   -2.2994  -10.8812    2.5518 C   0  0  0  0  0  0
   -1.6207   -2.9132   -5.7896 N   0  0  0  0  0  0
   -3.4857   -1.7346    1.5681 O   0  0  0  0  0  0
   -5.9299   -0.2876   -4.5240 O   0  0  0  0  0  0
   -2.5192   -5.9716   -1.8394 O   0  0  0  0  0  0
   -1.4622   -2.9445   -4.4579 C   0  0  0  0  0  0
   -4.8969   -0.3300   -2.3559 C   0  0  2  0  0  0
   -1.8093   -5.5929    0.4555 C   0  0  2  0  0  0
   -3.6135  -10.4816    3.1747 C   0  0  0  0  0  0
   -3.4998   -0.4919   -2.6935 O   0  0  0  0  0  0
   -1.2285   -6.4173    1.4804 O   0  0  0  0  0  0
   -0.4883   -3.6256   -3.7452 C   0  0  0  0  0  0
   -5.1090   -0.8343   -0.9354 C   0  0  0  0  0  0
   -2.8370   -4.6601    1.0721 C   0  0  0  0  0  0
   -3.9438   -9.0250    2.9419 C   0  0  0  0  0  0
   -4.3412   -0.0420   -0.0445 O   0  0  0  0  0  0
   -2.1813   -3.8114    1.9978 O   0  0  0  0  0  0
    0.4325   -4.3617   -4.4841 C   0  0  0  0  0  0
   -3.1023   -8.2294    2.2604 C   0  0  0  0  0  0
    1.4542   -5.0834   -3.8434 N   0  0  0  0  0  0
   -1.8403  -12.2646    2.6626 C   0  0  0  0  0  0
   -0.6423   -3.4231   -2.3967 N   0  0  0  0  0  0
   -2.7035  -13.0768    3.3625 N   0  0  0  0  0  0
   -0.7778  -12.6383    2.1661 O   0  5  0  0  0  0
   -1.6905   -2.6331   -2.2917 C   0  0  0  0  0  0
   -2.2223   -2.3157   -3.5133 N   0  0  0  0  0  0
   -5.8962   -3.3512   -5.2120 H   0  0  0  0  0  0
   -0.3386   -7.3765   -2.3884 H   0  0  0  0  0  0
   -6.6176    0.5667   -4.4385 H   0  0  0  0  0  0
   -3.2009   -5.1228   -1.9967 H   0  0  0  0  0  0
   -3.1808   -0.9850   -4.7171 H   0  0  0  0  0  0
   -0.0146   -8.0992    1.1131 H   0  0  0  0  0  0
   -0.7227   -3.6947   -7.4789 H   0  0  0  0  0  0
   -4.7660   -3.1301   -3.1622 H   0  0  0  0  0  0
   -1.8015   -8.6484   -0.9471 H   0  0  0  0  0  0
   -6.6812   -1.4733   -3.0814 H   0  0  0  0  0  0
   -0.5853  -10.3161    1.4404 H   0  0  0  0  0  0
   -3.4542   -6.8368   -0.4030 H   0  0  0  0  0  0
   -5.1848    0.7311   -2.3894 H   0  0  0  0  0  0
   -1.0386   -4.9601   -0.0087 H   0  0  0  0  0  0
   -4.4236  -11.0865    2.7414 H   0  0  0  0  0  0
   -3.5708  -10.6502    4.2609 H   0  0  0  0  0  0
   -4.8860   -8.6182    3.3379 H   0  0  0  0  0  0
   -3.3579   -7.1725    2.0943 H   0  0  0  0  0  0
   -2.1081   -2.2615   -1.3659 H   0  0  0  0  0  0
   -6.1749   -0.7583   -0.6747 H   0  0  0  0  0  0
   -4.7890   -1.8845   -0.8675 H   0  0  0  0  0  0
   -3.3071   -4.0579    0.2807 H   0  0  0  0  0  0
   -3.6069   -5.2525    1.5882 H   0  0  0  0  0  0
    1.5323   -5.0699   -2.7463 H   0  0  0  0  0  0
    2.1758   -5.6618   -4.4391 H   0  0  0  0  0  0
   -3.6356  -12.6630    3.7748 H   0  0  0  0  0  0
  1  7  2  0  0  0
  1 13  1  0  0  0
  1 21  1  0  0  0
  1 34  1  0  0  0
  2  8  2  0  0  0
  2 16  1  0  0  0
  2 21  1  0  0  0
  2 35  1  0  0  0
  3 10  1  0  0  0
  3 28  1  0  0  0
  3 44  1  0  0  0
  3 49  1  0  0  0
  4  6  1  0  0  0
  4 11  1  0  0  0
  4 29  1  0  0  0
  4 50  1  0  0  0
  5  9  1  0  0  0
  5 36  2  0  0  0
  6 12  1  0  0  0
  6 37  1  0  0  0
  9 20  2  0  0  0
  9 51  1  0  0  0
 10 14  1  0  0  0
 10 17  1  0  0  0
 10 52  1  0  0  0
 11 15  1  0  0  0
 11 18  1  0  0  0
 11 53  1  0  0  0
 12 19  2  0  0  0
 12 55  1  0  0  0
 14 45  1  0  0  0
 15 46  1  0  0  0
 17 22  1  0  0  0
 17 25  1  0  0  0
 17 54  1  0  0  0
 18 23  1  0  0  0
 18 26  1  0  0  0
 18 56  1  0  0  0
 19 27  1  0  0  0
 19 39  1  0  0  0
 20 24  1  0  0  0
 22 47  1  0  0  0
 23 48  1  0  0  0
 24 30  2  0  0  0
 24 44  1  0  0  0
 25 28  1  0  0  0
 25 31  1  0  0  0
 25 57  1  0  0  0
 26 29  1  0  0  0
 26 32  1  0  0  0
 26 58  1  0  0  0
 27 33  1  0  0  0
 27 59  1  0  0  0
 27 60  1  0  0  0
 30 36  1  0  0  0
 30 40  1  0  0  0
 31 34  1  0  0  0
 31 64  1  0  0  0
 31 65  1  0  0  0
 32 35  1  0  0  0
 32 66  1  0  0  0
 32 67  1  0  0  0
 33 37  2  0  0  0
 33 61  1  0  0  0
 36 38  1  0  0  0
 37 62  1  0  0  0
 38 68  1  0  0  0
 38 69  1  0  0  0
 39 41  2  0  0  0
 39 42  1  0  0  0
 40 43  2  0  0  0
 41 70  1  0  0  0
 43 44  1  0  0  0
 43 63  1  0  0  0
M  CHG  1  42  -1
M  END
> <s_m_source_file>
C:\Users\rustenba\Documents\Visual Studio 2015\Projects\CTProject\CTProject\mcce-charges\epik_data\output_8.0\NADH\NADH-input.mol2

> <i_m_source_file_index>
1

> <r_epik_Ionization_Penalty>
  3.4191

> <r_epik_Ionization_Penalty_Charging>
  3.4188

> <r_epik_Ionization_Penalty_Neutral>
  0.0004

> <r_epik_State_Penalty>
  3.6489

> <i_epik_Tot_Q>
-1

> <s_epik_Chemistry_Notes>
This compound has an imine and may undergo hydrolysis. This compound contains an acetal/aminal-like group ( X-CH(R)-Y where X, Y are N, S, or O) that may be acid/base labile, releasing an aldehyde.

$$$$
[[5-(6-aminopurin-9-yl)-3,4-dihydroxy-tetrahydrofuran-2-yl]methoxy-oxido-phosphoryl] [5-(3-carbamoyl-4~{H}-pyridin-1-yl)-3,4-dihydroxy-tetrahydrofuran-2-yl]methyl phosphate
                    3D
 Structure written by MMmdl.
 70 74  0  0  1  0            999 V2000
   -4.3863   -0.3717    1.5567 P   0  0  1  0  0  0
   -3.0545   -2.6961    2.8165 P   0  0  1  0  0  0
   -3.3870   -1.4655   -3.7493 C   0  0  1  0  0  0
   -1.0466   -7.7488    0.9637 C   0  0  1  0  0  0
    0.3327   -4.3756   -5.8351 N   0  0  0  0  0  0
   -1.8781   -8.6454    1.7210 N   0  0  0  0  0  0
   -5.8025   -0.7209    1.9602 O   0  0  0  0  0  0
   -2.1406   -1.9172    3.7376 O   0  0  0  0  0  0
   -0.6730   -3.6612   -6.3956 C   0  0  0  0  0  0
   -4.7088   -2.2179   -3.7743 C   0  0  2  0  0  0
   -1.4237   -7.7116   -0.5116 C   0  0  2  0  0  0
   -1.5372   -9.9955    1.8889 C   0  0  0  0  0  0
   -3.6193    0.7112    2.2838 O   0  0  0  0  0  0
   -4.9728   -2.7772   -5.0448 O   0  0  0  0  0  0
   -0.2618   -7.4415   -1.2930 O   0  0  0  0  0  0
   -4.3000   -3.3691    3.3506 O   0  0  0  0  0  0
   -5.6859   -1.1235   -3.3927 C   0  0  2  0  0  0
   -2.4024   -6.5552   -0.5596 C   0  0  2  0  0  0
   -2.2994  -10.8812    2.5518 C   0  0  0  0  0  0
   -1.6207   -2.9132   -5.7896 N   0  0  0  0  0  0
   -3.4857   -1.7346    1.5681 O   0  0  0  0  0  0
   -5.9299   -0.2876   -4.5240 O   0  0  0  0  0  0
   -2.5192   -5.9716   -1.8394 O   0  0  0  0  0  0
   -1.4622   -2.9445   -4.4579 C   0  0  0  0  0  0
   -4.8969   -0.3300   -2.3559 C   0  0  2  0  0  0
   -1.8093   -5.5929    0.4555 C   0  0  2  0  0  0
   -3.6135  -10.4816    3.1747 C   0  0  0  0  0  0
   -3.4998   -0.4919   -2.6935 O   0  0  0  0  0  0
   -1.2285   -6.4173    1.4804 O   0  0  0  0  0  0
   -0.4883   -3.6256   -3.7452 C   0  0  0  0  0  0
   -5.1090   -0.8343   -0.9354 C   0  0  0  0  0  0
   -2.8370   -4.6601    1.0721 C   0  0  0  0  0  0
   -3.9438   -9.0250    2.9419 C   0  0  0  0  0  0
   -4.3412   -0.0420   -0.0445 O   0  0  0  0  0  0
   -2.1813   -3.8114    1.9978 O   0  0  0  0  0  0
    0.4325   -4.3617   -4.4841 C   0  0  0  0  0  0
   -3.1023   -8.2294    2.2604 C   0  0  0  0  0  0
    1.4542   -5.0834   -3.8434 N   0  0  0  0  0  0
   -1.8403  -12.2646    2.6626 C   0  0  0  0  0  0
   -0.6423   -3.4231   -2.3967 N   0  0  0  0  0  0
   -2.7035  -13.0768    3.3625 N   0  0  0  0  0  0
   -0.7778  -12.6383    2.1661 O   0  5  0  0  0  0
   -1.6905   -2.6331   -2.2917 C   0  0  0  0  0  0
   -2.2223   -2.3157   -3.5133 N   0  0  0  0  0  0
   -5.8962   -3.3512   -5.2120 H   0  0  0  0  0  0
   -0.3386   -7.3765   -2.3884 H   0  0  0  0  0  0
   -6.6176    0.5667   -4.4385 H   0  0  0  0  0  0
   -3.2009   -5.1228   -1.9967 H   0  0  0  0  0  0
   -3.1808   -0.9850   -4.7171 H   0  0  0  0  0  0
   -0.0146   -8.0992    1.1131 H   0  0  0  0  0  0
   -0.7227   -3.6947   -7.4789 H   0  0  0  0  0  0
   -4.7660   -3.1301   -3.1622 H   0  0  0  0  0  0
   -1.8015   -8.6484   -0.9471 H   0  0  0  0  0  0
   -6.6812   -1.4733   -3.0814 H   0  0  0  0  0  0
   -0.5853  -10.3161    1.4404 H   0  0  0  0  0  0
   -3.4542   -6.8368   -0.4030 H   0  0  0  0  0  0
   -5.1848    0.7311   -2.3894 H   0  0  0  0  0  0
   -1.0386   -4.9601   -0.0087 H   0  0  0  0  0  0
   -4.4236  -11.0865    2.7414 H   0  0  0  0  0  0
   -3.5708  -10.6502    4.2609 H   0  0  0  0  0  0
   -4.8860   -8.6182    3.3379 H   0  0  0  0  0  0
   -3.3579   -7.1725    2.0943 H   0  0  0  0  0  0
   -2.1081   -2.2615   -1.3659 H   0  0  0  0  0  0
   -6.1749   -0.7583   -0.6747 H   0  0  0  0  0  0
   -4.7890   -1.8845   -0.8675 H   0  0  0  0  0  0
   -3.3071   -4.0579    0.2807 H   0  0  0  0  0  0
   -3.6069   -5.2525    1.5882 H   0  0  0  0  0  0
    1.5323   -5.0699   -2.7463 H   0  0  0  0  0  0
    2.1758   -5.6618   -4.4391 H   0  0  0  0  0  0
   -2.4612  -14.1397    3.5095 H   0  0  0  0  0  0
  1  7  2  0  0  0
  1 13  1  0  0  0
  1 21  1  0  0  0
  1 34  1  0  0  0
  2  8  2  0  0  0
  2 16  1  0  0  0
  2 21  1  0  0  0
  2 35  1  0  0  0
  3 10  1  0  0  0
  3 28  1  0  0  0
  3 44  1  0  0  0
  3 49  1  0  0  0
  4  6  1  0  0  0
  4 11  1  0  0  0
  4 29  1  0  0  0
  4 50  1  0  0  0
  5  9  1  0  0  0
  5 36  2  0  0  0
  6 12  1  0  0  0
  6 37  1  0  0  0
  9 20  2  0  0  0
  9 51  1  0  0  0
 10 14  1  0  0  0
 10 17  1  0  0  0
 10 52  1  0  0  0
 11 15  1  0  0  0
 11 18  1  0  0  0
 11 53  1  0  0  0
 12 19  2  0  0  0
 12 55  1  0  0  0
 14 45  1  0  0  0
 15 46  1  0  0  0
 17 22  1  0  0  0
 17 25  1  0  0  0
 17 54  1  0  0  0
 18 23  1  0  0  0
 18 26  1  0  0  0
 18 56  1  0  0  0
 19 27  1  0  0  0
 19 39  1  0  0  0
 20 24  1  0  0  0
 22 47  1  0  0  0
 23 48  1  0  0  0
 24 30  2  0  0  0
 24 44  1  0  0  0
 25 28  1  0  0  0
 25 31  1  0  0  0
 25 57  1  0  0  0
 26 29  1  0  0  0
 26 32  1  0  0  0
 26 58  1  0  0  0
 27 33  1  0  0  0
 27 59  1  0  0  0
 27 60  1  0  0  0
 30 36  1  0  0  0
 30 40  1  0  0  0
 31 34  1  0  0  0
 31 64  1  0  0  0
 31 65  1  0  0  0
 32 35  1  0  0  0
 32 66  1  0  0  0
 32 67  1  0  0  0
 33 37  2  0  0  0
 33 61  1  0  0  0
 36 38  1  0  0  0
 37 62  1  0  0  0
 38 68  1  0  0  0
 38 69  1  0  0  0
 39 41  2  0  0  0
 39 42  1  0  0  0
 40 43  2  0  0  0
 41 70  1  0  0  0
 43 44  1  0  0  0
 43 63  1  0  0  0
M  CHG  1  42  -1
M  END
> <s_m_source_file>
C:\Users\rustenba\Documents\Visual Studio 2015\Projects\CTProject\CTProject\mcce-charges\epik_data\output_8.0\NADH\NADH-input.mol2

> <i_m_source_file_index>
1

> <r_epik_Ionization_Penalty>
  3.4191

> <r_epik_Ionization_Penalty_Charging>
  3.4188

> <r_epik_Ionization_Penalty_Neutral>
  0.0004

> <r_epik_State_Penalty>
  3.6489

> <i_epik_Tot_Q>
-1

> <s_epik_Chemistry_Notes>
This compound has an imine and may undergo hydrolysis. This compound contains an acetal/aminal-like group ( X-CH(R)-Y where X, Y are N, S, or O) that may be acid/base labile, releasing an aldehyde.

$$$$
[[5-(6-aminopurin-9-yl)-3,4-dihydroxy-tetrahydrofuran-2-yl]methoxy-oxido-phosphoryl] [5-(3-carbamoyl-4~{H}-pyridin-1-yl)-3,4-dihydroxy-tetrahydrofuran-2-yl]methyl phosphate
                    3D
 Structure written by MMmdl.
 72 76  0  0  1  0            999 V2000
   -4.3863   -0.3717    1.5567 P   0  0  1  0  0  0
   -3.0545   -2.6961    2.8165 P   0  0  1  0  0  0
   -3.3870   -1.4655   -3.7493 C   0  0  1  0  0  0
   -1.0466   -7.7488    0.9637 C   0  0  1  0  0  0
    0.3327   -4.3756   -5.8351 N   0  3  0  0  0  0
   -1.8781   -8.6454    1.7210 N   0  0  0  0  0  0
   -5.8025   -0.7209    1.9602 O   0  0  0  0  0  0
   -2.1406   -1.9172    3.7376 O   0  0  0  0  0  0
   -0.6730   -3.6612   -6.3956 C   0  0  0  0  0  0
   -4.7088   -2.2179   -3.7743 C   0  0  2  0  0  0
   -1.4237   -7.7116   -0.5116 C   0  0  2  0  0  0
   -1.5372   -9.9955    1.8889 C   0  0  0  0  0  0
   -3.6193    0.7112    2.2838 O   0  0  0  0  0  0
   -4.9728   -2.7772   -5.0448 O   0  0  0  0  0  0
   -0.2618   -7.4415   -1.2930 O   0  0  0  0  0  0
   -4.3000   -3.3691    3.3506 O   0  0  0  0  0  0
   -5.6859   -1.1235   -3.3927 C   0  0  2  0  0  0
   -2.4024   -6.5552   -0.5596 C   0  0  2  0  0  0
   -2.2994  -10.8812    2.5518 C   0  0  0  0  0  0
   -1.6207   -2.9132   -5.7896 N   0  0  0  0  0  0
   -3.4857   -1.7346    1.5681 O   0  0  0  0  0  0
   -5.9299   -0.2876   -4.5240 O   0  0  0  0  0  0
   -2.5192   -5.9716   -1.8394 O   0  0  0  0  0  0
   -1.4622   -2.9445   -4.4579 C   0  0  0  0  0  0
   -4.8969   -0.3300   -2.3559 C   0  0  2  0  0  0
   -1.8093   -5.5929    0.4555 C   0  0  2  0  0  0
   -3.6135  -10.4816    3.1747 C   0  0  0  0  0  0
   -3.4998   -0.4919   -2.6935 O   0  0  0  0  0  0
   -1.2285   -6.4173    1.4804 O   0  0  0  0  0  0
   -0.4883   -3.6256   -3.7452 C   0  0  0  0  0  0
   -5.1090   -0.8343   -0.9354 C   0  0  0  0  0  0
   -2.8370   -4.6601    1.0721 C   0  0  0  0  0  0
   -3.9438   -9.0250    2.9419 C   0  0  0  0  0  0
   -4.3412   -0.0420   -0.0445 O   0  0  0  0  0  0
   -2.1813   -3.8114    1.9978 O   0  0  0  0  0  0
    0.4325   -4.3617   -4.4841 C   0  0  0  0  0  0
   -3.1023   -8.2294    2.2604 C   0  0  0  0  0  0
    1.4542   -5.0834   -3.8434 N   0  0  0  0  0  0
   -1.8403  -12.2646    2.6626 C   0  0  0  0  0  0
   -0.6423   -3.4231   -2.3967 N   0  0  0  0  0  0
   -2.7035  -13.0768    3.3625 N   0  0  0  0  0  0
   -0.7778  -12.6383    2.1661 O   0  0  0  0  0  0
   -1.6905   -2.6331   -2.2917 C   0  0  0  0  0  0
   -2.2223   -2.3157   -3.5133 N   0  0  0  0  0  0
   -5.8962   -3.3512   -5.2120 H   0  0  0  0  0  0
   -0.3386   -7.3765   -2.3884 H   0  0  0  0  0  0
   -6.6176    0.5667   -4.4385 H   0  0  0  0  0  0
   -3.2009   -5.1228   -1.9967 H   0  0  0  0  0  0
   -3.1808   -0.9850   -4.7171 H   0  0  0  0  0  0
   -0.0146   -8.0992    1.1131 H   0  0  0  0  0  0
   -0.7227   -3.6947   -7.4789 H   0  0  0  0  0  0
   -4.7660   -3.1301   -3.1622 H   0  0  0  0  0  0
   -1.8015   -8.6484   -0.9471 H   0  0  0  0  0  0
   -6.6812   -1.4733   -3.0814 H   0  0  0  0  0  0
   -0.5853  -10.3161    1.4404 H   0  0  0  0  0  0
   -3.4542   -6.8368   -0.4030 H   0  0  0  0  0  0
   -5.1848    0.7311   -2.3894 H   0  0  0  0  0  0
   -1.0386   -4.9601   -0.0087 H   0  0  0  0  0  0
   -4.4236  -11.0865    2.7414 H   0  0  0  0  0  0
   -3.5708  -10.6502    4.2609 H   0  0  0  0  0  0
   -4.8860   -8.6182    3.3379 H   0  0  0  0  0  0
   -3.3579   -7.1725    2.0943 H   0  0  0  0  0  0
   -2.1081   -2.2615   -1.3659 H   0  0  0  0  0  0
   -6.1749   -0.7583   -0.6747 H   0  0  0  0  0  0
   -4.7890   -1.8845   -0.8675 H   0  0  0  0  0  0
   -3.3071   -4.0579    0.2807 H   0  0  0  0  0  0
   -3.6069   -5.2525    1.5882 H   0  0  0  0  0  0
    1.5323   -5.0699   -2.7463 H   0  0  0  0  0  0
    2.1758   -5.6618   -4.4391 H   0  0  0  0  0  0
   -2.4612  -14.1397    3.5095 H   0  0  0  0  0  0
   -3.6356  -12.6630    3.7748 H   0  0  0  0  0  0
    1.0299   -4.9381   -6.4735 H   0  0  0  0  0  0
  1  7  2  0  0  0
  1 13  1  0  0  0
  1 21  1  0  0  0
  1 34  1  0  0  0
  2  8  2  0  0  0
  2 16  1  0  0  0
  2 21  1  0  0  0
  2 35  1  0  0  0
  3 10  1  0  0  0
  3 28  1  0  0  0
  3 44  1  0  0  0
  3 49  1  0  0  0
  4  6  1  0  0  0
  4 11  1  0  0  0
  4 29  1  0  0  0
  4 50  1  0  0  0
  5  9  1  0  0  0
  5 36  2  0  0  0
  5 72  1  0  0  0
  6 12  1  0  0  0
  6 37  1  0  0  0
  9 20  2  0  0  0
  9 51  1  0  0  0
 10 14  1  0  0  0
 10 17  1  0  0  0
 10 52  1  0  0  0
 11 15  1  0  0  0
 11 18  1  0  0  0
 11 53  1  0  0  0
 12 19  2  0  0  0
 12 55  1  0  0  0
 14 45  1  0  0  0
 15 46  1  0  0  0
 17 22  1  0  0  0
 17 25  1  0  0  0
 17 54  1  0  0  0
 18 23  1  0  0  0
 18 26  1  0  0  0
 18 56  1  0  0  0
 19 27  1  0  0  0
 19 39  1  0  0  0
 20 24  1  0  0  0
 22 47  1  0  0  0
 23 48  1  0  0  0
 24 30  2  0  0  0
 24 44  1  0  0  0
 25 28  1  0  0  0
 25 31  1  0  0  0
 25 57  1  0  0  0
 26 29  1  0  0  0
 26 32  1  0  0  0
 26 58  1  0  0  0
 27 33  1  0  0  0
 27 59  1  0  0  0
 27 60  1  0  0  0
 30 36  1  0  0  0
 30 40  1  0  0  0
 31 34  1  0  0  0
 31 64  1  0  0  0
 31 65  1  0  0  0
 32 35  1  0  0  0
 32 66  1  0  0  0
 32 67  1  0  0  0
 33 37  2  0  0  0
 33 61  1  0  0  0
 36 38  1  0  0  0
 37 62  1  0  0  0
 38 68  1  0  0  0
 38 69  1  0  0  0
 39 41  1  0  0  0
 39 42  2  0  0  0
 40 43  2  0  0  0
 41 70  1  0  0  0
 41 71  1  0  0  0
 43 44  1  0  0  0
 43 63  1  0  0  0
M  CHG  1   5   1
M  END
> <s_m_source_file>
C:\Users\rustenba\Documents\Visual Studio 2015\Projects\CTProject\CTProject\mcce-charges\epik_data\output_8.0\NADH\NADH-input.mol2

> <i_m_source_file_index>
1

> <r_epik_Ionization_Penalty>
  4.7263

> <r_epik_Ionization_Penalty_Charging>
  4.6685

> <r_epik_Ionization_Penalty_Neutral>
  0.0577

> <r_epik_State_Penalty>
  4.9842

> <i_epik_Tot_Q>
1

> <s_epik_Chemistry_Notes>
This compound has an imine and may undergo hydrolysis. This compound contains an acetal/aminal-like group ( X-CH(R)-Y where X, Y are N, S, or O) that may be acid/base labile, releasing an aldehyde.

$$$$
[[5-(6-aminopurin-9-yl)-3,4-dihydroxy-tetrahydrofuran-2-yl]methoxy-oxido-phosphoryl] [5-(3-carbamoyl-4~{H}-pyridin-1-yl)-3,4-dihydroxy-tetrahydrofuran-2-yl]methyl phosphate
                    3D
 Structure written by MMmdl.
 70 74  0  0  1  0            999 V2000
   -4.3863   -0.3717    1.5567 P   0  0  1  0  0  0
   -3.0545   -2.6961    2.8165 P   0  0  1  0  0  0
   -3.3870   -1.4655   -3.7493 C   0  0  1  0  0  0
   -1.0466   -7.7488    0.9637 C   0  0  1  0  0  0
    0.3327   -4.3756   -5.8351 N   0  0  0  0  0  0
   -1.8781   -8.6454    1.7210 N   0  0  0  0  0  0
   -5.8025   -0.7209    1.9602 O   0  0  0  0  0  0
   -2.1406   -1.9172    3.7376 O   0  0  0  0  0  0
   -0.6730   -3.6612   -6.3956 C   0  0  0  0  0  0
   -4.7088   -2.2179   -3.7743 C   0  0  2  0  0  0
   -1.4237   -7.7116   -0.5116 C   0  0  2  0  0  0
   -1.5372   -9.9955    1.8889 C   0  0  0  0  0  0
   -3.6193    0.7112    2.2838 O   0  0  0  0  0  0
   -4.9728   -2.7772   -5.0448 O   0  0  0  0  0  0
   -0.2618   -7.4415   -1.2930 O   0  5  0  0  0  0
   -4.3000   -3.3691    3.3506 O   0  0  0  0  0  0
   -5.6859   -1.1235   -3.3927 C   0  0  2  0  0  0
   -2.4024   -6.5552   -0.5596 C   0  0  2  0  0  0
   -2.2994  -10.8812    2.5518 C   0  0  0  0  0  0
   -1.6207   -2.9132   -5.7896 N   0  0  0  0  0  0
   -3.4857   -1.7346    1.5681 O   0  0  0  0  0  0
   -5.9299   -0.2876   -4.5240 O   0  0  0  0  0  0
   -2.5192   -5.9716   -1.8394 O   0  0  0  0  0  0
   -1.4622   -2.9445   -4.4579 C   0  0  0  0  0  0
   -4.8969   -0.3300   -2.3559 C   0  0  2  0  0  0
   -1.8093   -5.5929    0.4555 C   0  0  2  0  0  0
   -3.6135  -10.4816    3.1747 C   0  0  0  0  0  0
   -3.4998   -0.4919   -2.6935 O   0  0  0  0  0  0
   -1.2285   -6.4173    1.4804 O   0  0  0  0  0  0
   -0.4883   -3.6256   -3.7452 C   0  0  0  0  0  0
   -5.1090   -0.8343   -0.9354 C   0  0  0  0  0  0
   -2.8370   -4.6601    1.0721 C   0  0  0  0  0  0
   -3.9438   -9.0250    2.9419 C   0  0  0  0  0  0
   -4.3412   -0.0420   -0.0445 O   0  0  0  0  0  0
   -2.1813   -3.8114    1.9978 O   0  0  0  0  0  0
    0.4325   -4.3617   -4.4841 C   0  0  0  0  0  0
   -3.1023   -8.2294    2.2604 C   0  0  0  0  0  0
    1.4542   -5.0834   -3.8434 N   0  0  0  0  0  0
   -1.8403  -12.2646    2.6626 C   0  0  0  0  0  0
   -0.6423   -3.4231   -2.3967 N   0  0  0  0  0  0
   -2.7035  -13.0768    3.3625 N   0  0  0  0  0  0
   -0.7778  -12.6383    2.1661 O   0  0  0  0  0  0
   -1.6905   -2.6331   -2.2917 C   0  0  0  0  0  0
   -2.2223   -2.3157   -3.5133 N   0  0  0  0  0  0
   -5.8962   -3.3512   -5.2120 H   0  0  0  0  0  0
   -6.6176    0.5667   -4.4385 H   0  0  0  0  0  0
   -3.2009   -5.1228   -1.9967 H   0  0  0  0  0  0
   -3.1808   -0.9850   -4.7171 H   0  0  0  0  0  0
   -0.0146   -8.0992    1.1131 H   0  0  0  0  0  0
   -0.7227   -3.6947   -7.4789 H   0  0  0  0  0  0
   -4.7660   -3.1301   -3.1622 H   0  0  0  0  0  0
   -1.8015   -8.6484   -0.9471 H   0  0  0  0  0  0
   -6.6812   -1.4733   -3.0814 H   0  0  0  0  0  0
   -0.5853  -10.3161    1.4404 H   0  0  0  0  0  0
   -3.4542   -6.8368   -0.4030 H   0  0  0  0  0  0
   -5.1848    0.7311   -2.3894 H   0  0  0  0  0  0
   -1.0386   -4.9601   -0.0087 H   0  0  0  0  0  0
   -4.4236  -11.0865    2.7414 H   0  0  0  0  0  0
   -3.5708  -10.6502    4.2609 H   0  0  0  0  0  0
   -4.8860   -8.6182    3.3379 H   0  0  0  0  0  0
   -3.3579   -7.1725    2.0943 H   0  0  0  0  0  0
   -2.1081   -2.2615   -1.3659 H   0  0  0  0  0  0
   -6.1749   -0.7583   -0.6747 H   0  0  0  0  0  0
   -4.7890   -1.8845   -0.8675 H   0  0  0  0  0  0
   -3.3071   -4.0579    0.2807 H   0  0  0  0  0  0
   -3.6069   -5.2525    1.5882 H   0  0  0  0  0  0
    1.5323   -5.0699   -2.7463 H   0  0  0  0  0  0
    2.1758   -5.6618   -4.4391 H   0  0  0  0  0  0
   -2.4612  -14.1397    3.5095 H   0  0  0  0  0  0
   -3.6356  -12.6630    3.7748 H   0  0  0  0  0  0
  1  7  2  0  0  0
  1 13  1  0  0  0
  1 21  1  0  0  0
  1 34  1  0  0  0
  2  8  2  0  0  0
  2 16  1  0  0  0
  2 21  1  0  0  0
  2 35  1  0  0  0
  3 10  1  0  0  0
  3 28  1  0  0  0
  3 44  1  0  0  0
  3 48  1  0  0  0
  4  6  1  0  0  0
  4 11  1  0  0  0
  4 29  1  0  0  0
  4 49  1  0  0  0
  5  9  1  0  0  0
  5 36  2  0  0  0
  6 12  1  0  0  0
  6 37  1  0  0  0
  9 20  2  0  0  0
  9 50  1  0  0  0
 10 14  1  0  0  0
 10 17  1  0  0  0
 10 51  1  0  0  0
 11 15  1  0  0  0
 11 18  1  0  0  0
 11 52  1  0  0  0
 12 19  2  0  0  0
 12 54  1  0  0  0
 14 45  1  0  0  0
 17 22  1  0  0  0
 17 25  1  0  0  0
 17 53  1  0  0  0
 18 23  1  0  0  0
 18 26  1  0  0  0
 18 55  1  0  0  0
 19 27  1  0  0  0
 19 39  1  0  0  0
 20 24  1  0  0  0
 22 46  1  0  0  0
 23 47  1  0  0  0
 24 30  2  0  0  0
 24 44  1  0  0  0
 25 28  1  0  0  0
 25 31  1  0  0  0
 25 56  1  0  0  0
 26 29  1  0  0  0
 26 32  1  0  0  0
 26 57  1  0  0  0
 27 33  1  0  0  0
 27 58  1  0  0  0
 27 59  1  0  0  0
 30 36  1  0  0  0
 30 40  1  0  0  0
 31 34  1  0  0  0
 31 63  1  0  0  0
 31 64  1  0  0  0
 32 35  1  0  0  0
 32 65  1  0  0  0
 32 66  1  0  0  0
 33 37  2  0  0  0
 33 60  1  0  0  0
 36 38  1  0  0  0
 37 61  1  0  0  0
 38 67  1  0  0  0
 38 68  1  0  0  0
 39 41  1  0  0  0
 39 42  2  0  0  0
 40 43  2  0  0  0
 41 69  1  0  0  0
 41 70  1  0  0  0
 43 44  1  0  0  0
 43 62  1  0  0  0
M  CHG  1  15  -1
M  END
> <s_m_source_file>
C:\Users\rustenba\Documents\Visual Studio 2015\Projects\CTProject\CTProject\mcce-charges\epik_data\output_8.0\NADH\NADH-input.mol2

> <i_m_source_file_index>
1

> <r_epik_Ionization_Penalty>
  5.0890

> <r_epik_Ionization_Penalty_Charging>
  5.0876

> <r_epik_Ionization_Penalty_Neutral>
  0.0014

> <r_epik_State_Penalty>
  5.4315

> <i_epik_Tot_Q>
-1

> <s_epik_Chemistry_Notes>
This compound has an imine and may undergo hydrolysis. This compound contains an acetal/aminal-like group ( X-CH(R)-Y where X, Y are N, S, or O) that may be acid/base labile, releasing an aldehyde.

$$$$
