@<TRIPOS>MOLECULE
*****
   15    14     1     0     0
SMALL
NO_CHARGES

@<TRIPOS>ATOM
      1  C1        11.6990  -16.8210  152.8280 C.3       1 AKG         0.0000
      2  C2        10.5900  -16.2890  153.7500 C.3       1 AKG         0.0000
      3  C3        11.1410  -15.6680  155.0280 C.2       1 AKG         0.0000
      4  O1        12.2790  -15.2160  155.1480 O.2       1 AKG         0.0000
      5  O2        10.2030  -15.7220  156.0140 O.3       1 AKG         0.0000
      6  C4        11.1340  -17.5710  151.6250 C.2       1 AKG         0.0000
      7  O3         9.9520  -17.9380  151.6070 O.2       1 AKG         0.0000
      8  C5        12.1110  -17.8990  150.4660 C.2       1 AKG         0.0000
      9  O4        13.2070  -17.3050  150.4180 O.co2     1 AKG         0.0000
     10  O5        11.7360  -18.7710  149.6580 O.co2     1 AKG         0.0000
     11  H1        12.3260  -17.5200  153.3800 H         1 AKG         0.0000
     12  H2        12.3410  -16.0040  152.4960 H         1 AKG         0.0000
     13  H3        10.0000  -15.5540  153.2270 H         1 AKG         0.0000
     14  H4         9.8720  -17.0700  153.9940 H         1 AKG         0.0000
     15  H5         9.3310  -15.8640  155.6570 H         1 AKG         0.0000
@<TRIPOS>BOND
     1    1    2 1
     2    1    6 1
     3    1   11 1
     4    1   12 1
     5    2    3 1
     6    2   13 1
     7    2   14 1
     8    3    4 2
     9    3    5 1
    10    5   15 1
    11    6    7 2
    12    6    8 1
    13    8    9 1
    14    8   10 2
@<TRIPOS>SUBSTRUCTURE
     1 AKG         1 GROUP   0 A     ****
